
---------- Begin Simulation Statistics ----------
simSeconds                                   0.380024                       # Number of seconds simulated (Second)
simTicks                                 380023537000                       # Number of ticks simulated (Tick)
finalTick                                380023537000                       # Number of ticks from beginning of simulation (restored from checkpoints and never reset) (Tick)
simFreq                                  1000000000000                       # The number of ticks per simulated second ((Tick/Second))
hostSeconds                                     75.27                       # Real time elapsed on the host (Second)
hostTickRate                               5048816010                       # The number of ticks simulated per host second (ticks/s) ((Tick/Second))
hostMemory                                    8570040                       # Number of bytes of host memory used (Byte)
simInsts                                    119637186                       # Number of instructions simulated (Count)
simOps                                      119637186                       # Number of ops (including micro ops) simulated (Count)
hostInstRate                                  1589442                       # Simulator instruction rate (inst/s) ((Count/Second))
hostOpRate                                    1589442                       # Simulator op (including micro ops) rate (op/s) ((Count/Second))
system.clk_domain.clock                          1000                       # Clock period in ticks (Tick)
system.clk_domain.voltage_domain.voltage            1                       # Voltage in Volts (Volt)
system.cpu.numCycles                        380023537                       # Number of cpu cycles simulated (Cycle)
system.cpu.numWorkItemsStarted                      0                       # Number of work items this cpu started (Count)
system.cpu.numWorkItemsCompleted                    0                       # Number of work items this cpu completed (Count)
system.cpu.dcache.demandHits::cpu.data       43603349                       # number of demand (read+write) hits (Count)
system.cpu.dcache.demandHits::total          43603349                       # number of demand (read+write) hits (Count)
system.cpu.dcache.overallHits::cpu.data      43603349                       # number of overall hits (Count)
system.cpu.dcache.overallHits::total         43603349                       # number of overall hits (Count)
system.cpu.dcache.demandMisses::cpu.data       308113                       # number of demand (read+write) misses (Count)
system.cpu.dcache.demandMisses::total          308113                       # number of demand (read+write) misses (Count)
system.cpu.dcache.overallMisses::cpu.data       308113                       # number of overall misses (Count)
system.cpu.dcache.overallMisses::total         308113                       # number of overall misses (Count)
system.cpu.dcache.demandMissLatency::cpu.data  24637567000                       # number of demand (read+write) miss ticks (Tick)
system.cpu.dcache.demandMissLatency::total  24637567000                       # number of demand (read+write) miss ticks (Tick)
system.cpu.dcache.overallMissLatency::cpu.data  24637567000                       # number of overall miss ticks (Tick)
system.cpu.dcache.overallMissLatency::total  24637567000                       # number of overall miss ticks (Tick)
system.cpu.dcache.demandAccesses::cpu.data     43911462                       # number of demand (read+write) accesses (Count)
system.cpu.dcache.demandAccesses::total      43911462                       # number of demand (read+write) accesses (Count)
system.cpu.dcache.overallAccesses::cpu.data     43911462                       # number of overall (read+write) accesses (Count)
system.cpu.dcache.overallAccesses::total     43911462                       # number of overall (read+write) accesses (Count)
system.cpu.dcache.demandMissRate::cpu.data     0.007017                       # miss rate for demand accesses (Ratio)
system.cpu.dcache.demandMissRate::total      0.007017                       # miss rate for demand accesses (Ratio)
system.cpu.dcache.overallMissRate::cpu.data     0.007017                       # miss rate for overall accesses (Ratio)
system.cpu.dcache.overallMissRate::total     0.007017                       # miss rate for overall accesses (Ratio)
system.cpu.dcache.demandAvgMissLatency::cpu.data 79962.763661                       # average overall miss latency ((Cycle/Count))
system.cpu.dcache.demandAvgMissLatency::total 79962.763661                       # average overall miss latency ((Cycle/Count))
system.cpu.dcache.overallAvgMissLatency::cpu.data 79962.763661                       # average overall miss latency ((Cycle/Count))
system.cpu.dcache.overallAvgMissLatency::total 79962.763661                       # average overall miss latency ((Cycle/Count))
system.cpu.dcache.blockedCycles::no_mshrs            0                       # number of cycles access was blocked (Cycle)
system.cpu.dcache.blockedCycles::no_targets            0                       # number of cycles access was blocked (Cycle)
system.cpu.dcache.blockedCauses::no_mshrs            0                       # number of times access was blocked (Count)
system.cpu.dcache.blockedCauses::no_targets            0                       # number of times access was blocked (Count)
system.cpu.dcache.avgBlocked::no_mshrs            nan                       # average number of cycles each access was blocked ((Cycle/Count))
system.cpu.dcache.avgBlocked::no_targets          nan                       # average number of cycles each access was blocked ((Cycle/Count))
system.cpu.dcache.writebacks::writebacks       209224                       # number of writebacks (Count)
system.cpu.dcache.writebacks::total            209224                       # number of writebacks (Count)
system.cpu.dcache.demandMshrMisses::cpu.data       308113                       # number of demand (read+write) MSHR misses (Count)
system.cpu.dcache.demandMshrMisses::total       308113                       # number of demand (read+write) MSHR misses (Count)
system.cpu.dcache.overallMshrMisses::cpu.data       308113                       # number of overall MSHR misses (Count)
system.cpu.dcache.overallMshrMisses::total       308113                       # number of overall MSHR misses (Count)
system.cpu.dcache.demandMshrMissLatency::cpu.data  24021341000                       # number of demand (read+write) MSHR miss ticks (Tick)
system.cpu.dcache.demandMshrMissLatency::total  24021341000                       # number of demand (read+write) MSHR miss ticks (Tick)
system.cpu.dcache.overallMshrMissLatency::cpu.data  24021341000                       # number of overall MSHR miss ticks (Tick)
system.cpu.dcache.overallMshrMissLatency::total  24021341000                       # number of overall MSHR miss ticks (Tick)
system.cpu.dcache.demandMshrMissRate::cpu.data     0.007017                       # mshr miss ratio for demand accesses (Ratio)
system.cpu.dcache.demandMshrMissRate::total     0.007017                       # mshr miss ratio for demand accesses (Ratio)
system.cpu.dcache.overallMshrMissRate::cpu.data     0.007017                       # mshr miss ratio for overall accesses (Ratio)
system.cpu.dcache.overallMshrMissRate::total     0.007017                       # mshr miss ratio for overall accesses (Ratio)
system.cpu.dcache.demandAvgMshrMissLatency::cpu.data 77962.763661                       # average overall mshr miss latency ((Cycle/Count))
system.cpu.dcache.demandAvgMshrMissLatency::total 77962.763661                       # average overall mshr miss latency ((Cycle/Count))
system.cpu.dcache.overallAvgMshrMissLatency::cpu.data 77962.763661                       # average overall mshr miss latency ((Cycle/Count))
system.cpu.dcache.overallAvgMshrMissLatency::total 77962.763661                       # average overall mshr miss latency ((Cycle/Count))
system.cpu.dcache.replacements                 300106                       # number of replacements (Count)
system.cpu.dcache.ReadReq.hits::cpu.data     25571543                       # number of ReadReq hits (Count)
system.cpu.dcache.ReadReq.hits::total        25571543                       # number of ReadReq hits (Count)
system.cpu.dcache.ReadReq.misses::cpu.data       160557                       # number of ReadReq misses (Count)
system.cpu.dcache.ReadReq.misses::total        160557                       # number of ReadReq misses (Count)
system.cpu.dcache.ReadReq.missLatency::cpu.data  12268995000                       # number of ReadReq miss ticks (Tick)
system.cpu.dcache.ReadReq.missLatency::total  12268995000                       # number of ReadReq miss ticks (Tick)
system.cpu.dcache.ReadReq.accesses::cpu.data     25732100                       # number of ReadReq accesses(hits+misses) (Count)
system.cpu.dcache.ReadReq.accesses::total     25732100                       # number of ReadReq accesses(hits+misses) (Count)
system.cpu.dcache.ReadReq.missRate::cpu.data     0.006240                       # miss rate for ReadReq accesses (Ratio)
system.cpu.dcache.ReadReq.missRate::total     0.006240                       # miss rate for ReadReq accesses (Ratio)
system.cpu.dcache.ReadReq.avgMissLatency::cpu.data 76415.198341                       # average ReadReq miss latency ((Tick/Count))
system.cpu.dcache.ReadReq.avgMissLatency::total 76415.198341                       # average ReadReq miss latency ((Tick/Count))
system.cpu.dcache.ReadReq.mshrMisses::cpu.data       160557                       # number of ReadReq MSHR misses (Count)
system.cpu.dcache.ReadReq.mshrMisses::total       160557                       # number of ReadReq MSHR misses (Count)
system.cpu.dcache.ReadReq.mshrMissLatency::cpu.data  11947881000                       # number of ReadReq MSHR miss ticks (Tick)
system.cpu.dcache.ReadReq.mshrMissLatency::total  11947881000                       # number of ReadReq MSHR miss ticks (Tick)
system.cpu.dcache.ReadReq.mshrMissRate::cpu.data     0.006240                       # mshr miss rate for ReadReq accesses (Ratio)
system.cpu.dcache.ReadReq.mshrMissRate::total     0.006240                       # mshr miss rate for ReadReq accesses (Ratio)
system.cpu.dcache.ReadReq.avgMshrMissLatency::cpu.data 74415.198341                       # average ReadReq mshr miss latency ((Tick/Count))
system.cpu.dcache.ReadReq.avgMshrMissLatency::total 74415.198341                       # average ReadReq mshr miss latency ((Tick/Count))
system.cpu.dcache.WriteReq.hits::cpu.data     18031806                       # number of WriteReq hits (Count)
system.cpu.dcache.WriteReq.hits::total       18031806                       # number of WriteReq hits (Count)
system.cpu.dcache.WriteReq.misses::cpu.data       147556                       # number of WriteReq misses (Count)
system.cpu.dcache.WriteReq.misses::total       147556                       # number of WriteReq misses (Count)
system.cpu.dcache.WriteReq.missLatency::cpu.data  12368572000                       # number of WriteReq miss ticks (Tick)
system.cpu.dcache.WriteReq.missLatency::total  12368572000                       # number of WriteReq miss ticks (Tick)
system.cpu.dcache.WriteReq.accesses::cpu.data     18179362                       # number of WriteReq accesses(hits+misses) (Count)
system.cpu.dcache.WriteReq.accesses::total     18179362                       # number of WriteReq accesses(hits+misses) (Count)
system.cpu.dcache.WriteReq.missRate::cpu.data     0.008117                       # miss rate for WriteReq accesses (Ratio)
system.cpu.dcache.WriteReq.missRate::total     0.008117                       # miss rate for WriteReq accesses (Ratio)
system.cpu.dcache.WriteReq.avgMissLatency::cpu.data 83822.901136                       # average WriteReq miss latency ((Tick/Count))
system.cpu.dcache.WriteReq.avgMissLatency::total 83822.901136                       # average WriteReq miss latency ((Tick/Count))
system.cpu.dcache.WriteReq.mshrMisses::cpu.data       147556                       # number of WriteReq MSHR misses (Count)
system.cpu.dcache.WriteReq.mshrMisses::total       147556                       # number of WriteReq MSHR misses (Count)
system.cpu.dcache.WriteReq.mshrMissLatency::cpu.data  12073460000                       # number of WriteReq MSHR miss ticks (Tick)
system.cpu.dcache.WriteReq.mshrMissLatency::total  12073460000                       # number of WriteReq MSHR miss ticks (Tick)
system.cpu.dcache.WriteReq.mshrMissRate::cpu.data     0.008117                       # mshr miss rate for WriteReq accesses (Ratio)
system.cpu.dcache.WriteReq.mshrMissRate::total     0.008117                       # mshr miss rate for WriteReq accesses (Ratio)
system.cpu.dcache.WriteReq.avgMshrMissLatency::cpu.data 81822.901136                       # average WriteReq mshr miss latency ((Tick/Count))
system.cpu.dcache.WriteReq.avgMshrMissLatency::total 81822.901136                       # average WriteReq mshr miss latency ((Tick/Count))
system.cpu.dcache.power_state.pwrStateResidencyTicks::UNDEFINED 380023537000                       # Cumulative time (in ticks) in various power states (Tick)
system.cpu.dcache.tags.tagsInUse           511.788401                       # Average ticks per tags in use ((Tick/Count))
system.cpu.dcache.tags.totalRefs             43911462                       # Total number of references to valid blocks. (Count)
system.cpu.dcache.tags.sampledRefs             300618                       # Sample count of references to valid blocks. (Count)
system.cpu.dcache.tags.avgRefs             146.070634                       # Average number of references to valid blocks. ((Count/Count))
system.cpu.dcache.tags.warmupTick              306000                       # The tick when the warmup percentage was hit. (Tick)
system.cpu.dcache.tags.occupancies::cpu.data   511.788401                       # Average occupied blocks per tick, per requestor ((Count/Tick))
system.cpu.dcache.tags.avgOccs::cpu.data     0.999587                       # Average percentage of cache occupancy ((Ratio/Tick))
system.cpu.dcache.tags.avgOccs::total        0.999587                       # Average percentage of cache occupancy ((Ratio/Tick))
system.cpu.dcache.tags.occupanciesTaskId::1024          512                       # Occupied blocks per task id (Count)
system.cpu.dcache.tags.ageTaskId_1024::0           21                       # Occupied blocks per task id, per block age (Count)
system.cpu.dcache.tags.ageTaskId_1024::1           39                       # Occupied blocks per task id, per block age (Count)
system.cpu.dcache.tags.ageTaskId_1024::2          257                       # Occupied blocks per task id, per block age (Count)
system.cpu.dcache.tags.ageTaskId_1024::3          195                       # Occupied blocks per task id, per block age (Count)
system.cpu.dcache.tags.ratioOccsTaskId::1024            1                       # Ratio of occupied blocks and all blocks, per task id (Ratio)
system.cpu.dcache.tags.tagAccesses           44212080                       # Number of tag accesses (Count)
system.cpu.dcache.tags.dataAccesses          44212080                       # Number of data accesses (Count)
system.cpu.dcache.tags.power_state.pwrStateResidencyTicks::UNDEFINED 380023537000                       # Cumulative time (in ticks) in various power states (Tick)
system.cpu.exec_context.thread_0.numInsts    119637186                       # Number of instructions committed (Count)
system.cpu.exec_context.thread_0.numOps     119637186                       # Number of ops (including micro ops) committed (Count)
system.cpu.exec_context.thread_0.numIntAluAccesses    117957081                       # Number of integer alu accesses (Count)
system.cpu.exec_context.thread_0.numFpAluAccesses           18                       # Number of float alu accesses (Count)
system.cpu.exec_context.thread_0.numVecAluAccesses            0                       # Number of vector alu accesses (Count)
system.cpu.exec_context.thread_0.numCallsReturns      2460369                       # Number of times a function call or return occured (Count)
system.cpu.exec_context.thread_0.numCondCtrlInsts     15066642                       # Number of instructions that are conditional controls (Count)
system.cpu.exec_context.thread_0.numIntInsts    117957081                       # Number of integer instructions (Count)
system.cpu.exec_context.thread_0.numFpInsts           18                       # Number of float instructions (Count)
system.cpu.exec_context.thread_0.numVecInsts            0                       # Number of vector instructions (Count)
system.cpu.exec_context.thread_0.numIntRegReads    213853188                       # Number of times the integer registers were read (Count)
system.cpu.exec_context.thread_0.numIntRegWrites    104941632                       # Number of times the integer registers were written (Count)
system.cpu.exec_context.thread_0.numFpRegReads           18                       # Number of times the floating registers were read (Count)
system.cpu.exec_context.thread_0.numFpRegWrites            0                       # Number of times the floating registers were written (Count)
system.cpu.exec_context.thread_0.numVecRegReads            0                       # Number of times the vector registers were read (Count)
system.cpu.exec_context.thread_0.numVecRegWrites            0                       # Number of times the vector registers were written (Count)
system.cpu.exec_context.thread_0.numVecPredRegReads            0                       # Number of times the predicate registers were read (Count)
system.cpu.exec_context.thread_0.numVecPredRegWrites            0                       # Number of times the predicate registers were written (Count)
system.cpu.exec_context.thread_0.numMiscRegReads            0                       # Number of times the Misc registers were read (Count)
system.cpu.exec_context.thread_0.numMiscRegWrites            0                       # Number of times the Misc registers were written (Count)
system.cpu.exec_context.thread_0.numMemRefs     43902416                       # Number of memory refs (Count)
system.cpu.exec_context.thread_0.numLoadInsts     25732099                       # Number of load instructions (Count)
system.cpu.exec_context.thread_0.numStoreInsts     18170317                       # Number of store instructions (Count)
system.cpu.exec_context.thread_0.numIdleCycles     0.001000                       # Number of idle cycles (Cycle)
system.cpu.exec_context.thread_0.numBusyCycles 380023536.999000                       # Number of busy cycles (Cycle)
system.cpu.exec_context.thread_0.notIdleFraction     1.000000                       # Percentage of non-idle cycles (Ratio)
system.cpu.exec_context.thread_0.idleFraction     0.000000                       # Percentage of idle cycles (Ratio)
system.cpu.exec_context.thread_0.numBranches     18128440                       # Number of branches fetched (Count)
system.cpu.exec_context.thread_0.statExecutedInstType::No_OpClass            0      0.00%      0.00% # Class of executed instruction. (Count)
system.cpu.exec_context.thread_0.statExecutedInstType::IntAlu     75736091     63.30%     63.30% # Class of executed instruction. (Count)
system.cpu.exec_context.thread_0.statExecutedInstType::IntMult            0      0.00%     63.30% # Class of executed instruction. (Count)
system.cpu.exec_context.thread_0.statExecutedInstType::IntDiv            0      0.00%     63.30% # Class of executed instruction. (Count)
system.cpu.exec_context.thread_0.statExecutedInstType::FloatAdd            0      0.00%     63.30% # Class of executed instruction. (Count)
system.cpu.exec_context.thread_0.statExecutedInstType::FloatCmp            0      0.00%     63.30% # Class of executed instruction. (Count)
system.cpu.exec_context.thread_0.statExecutedInstType::FloatCvt            0      0.00%     63.30% # Class of executed instruction. (Count)
system.cpu.exec_context.thread_0.statExecutedInstType::FloatMult            0      0.00%     63.30% # Class of executed instruction. (Count)
system.cpu.exec_context.thread_0.statExecutedInstType::FloatMultAcc            0      0.00%     63.30% # Class of executed instruction. (Count)
system.cpu.exec_context.thread_0.statExecutedInstType::FloatDiv            0      0.00%     63.30% # Class of executed instruction. (Count)
system.cpu.exec_context.thread_0.statExecutedInstType::FloatMisc            0      0.00%     63.30% # Class of executed instruction. (Count)
system.cpu.exec_context.thread_0.statExecutedInstType::FloatSqrt            0      0.00%     63.30% # Class of executed instruction. (Count)
system.cpu.exec_context.thread_0.statExecutedInstType::SimdAdd            0      0.00%     63.30% # Class of executed instruction. (Count)
system.cpu.exec_context.thread_0.statExecutedInstType::SimdAddAcc            0      0.00%     63.30% # Class of executed instruction. (Count)
system.cpu.exec_context.thread_0.statExecutedInstType::SimdAlu            0      0.00%     63.30% # Class of executed instruction. (Count)
system.cpu.exec_context.thread_0.statExecutedInstType::SimdCmp            0      0.00%     63.30% # Class of executed instruction. (Count)
system.cpu.exec_context.thread_0.statExecutedInstType::SimdCvt            0      0.00%     63.30% # Class of executed instruction. (Count)
system.cpu.exec_context.thread_0.statExecutedInstType::SimdMisc            0      0.00%     63.30% # Class of executed instruction. (Count)
system.cpu.exec_context.thread_0.statExecutedInstType::SimdMult            0      0.00%     63.30% # Class of executed instruction. (Count)
system.cpu.exec_context.thread_0.statExecutedInstType::SimdMultAcc            0      0.00%     63.30% # Class of executed instruction. (Count)
system.cpu.exec_context.thread_0.statExecutedInstType::SimdShift            0      0.00%     63.30% # Class of executed instruction. (Count)
system.cpu.exec_context.thread_0.statExecutedInstType::SimdShiftAcc            0      0.00%     63.30% # Class of executed instruction. (Count)
system.cpu.exec_context.thread_0.statExecutedInstType::SimdDiv            0      0.00%     63.30% # Class of executed instruction. (Count)
system.cpu.exec_context.thread_0.statExecutedInstType::SimdSqrt            0      0.00%     63.30% # Class of executed instruction. (Count)
system.cpu.exec_context.thread_0.statExecutedInstType::SimdFloatAdd            0      0.00%     63.30% # Class of executed instruction. (Count)
system.cpu.exec_context.thread_0.statExecutedInstType::SimdFloatAlu            0      0.00%     63.30% # Class of executed instruction. (Count)
system.cpu.exec_context.thread_0.statExecutedInstType::SimdFloatCmp            0      0.00%     63.30% # Class of executed instruction. (Count)
system.cpu.exec_context.thread_0.statExecutedInstType::SimdFloatCvt            0      0.00%     63.30% # Class of executed instruction. (Count)
system.cpu.exec_context.thread_0.statExecutedInstType::SimdFloatDiv            0      0.00%     63.30% # Class of executed instruction. (Count)
system.cpu.exec_context.thread_0.statExecutedInstType::SimdFloatMisc            0      0.00%     63.30% # Class of executed instruction. (Count)
system.cpu.exec_context.thread_0.statExecutedInstType::SimdFloatMult            0      0.00%     63.30% # Class of executed instruction. (Count)
system.cpu.exec_context.thread_0.statExecutedInstType::SimdFloatMultAcc            0      0.00%     63.30% # Class of executed instruction. (Count)
system.cpu.exec_context.thread_0.statExecutedInstType::SimdFloatSqrt            0      0.00%     63.30% # Class of executed instruction. (Count)
system.cpu.exec_context.thread_0.statExecutedInstType::SimdReduceAdd            0      0.00%     63.30% # Class of executed instruction. (Count)
system.cpu.exec_context.thread_0.statExecutedInstType::SimdReduceAlu            0      0.00%     63.30% # Class of executed instruction. (Count)
system.cpu.exec_context.thread_0.statExecutedInstType::SimdReduceCmp            0      0.00%     63.30% # Class of executed instruction. (Count)
system.cpu.exec_context.thread_0.statExecutedInstType::SimdFloatReduceAdd            0      0.00%     63.30% # Class of executed instruction. (Count)
system.cpu.exec_context.thread_0.statExecutedInstType::SimdFloatReduceCmp            0      0.00%     63.30% # Class of executed instruction. (Count)
system.cpu.exec_context.thread_0.statExecutedInstType::SimdAes            0      0.00%     63.30% # Class of executed instruction. (Count)
system.cpu.exec_context.thread_0.statExecutedInstType::SimdAesMix            0      0.00%     63.30% # Class of executed instruction. (Count)
system.cpu.exec_context.thread_0.statExecutedInstType::SimdSha1Hash            0      0.00%     63.30% # Class of executed instruction. (Count)
system.cpu.exec_context.thread_0.statExecutedInstType::SimdSha1Hash2            0      0.00%     63.30% # Class of executed instruction. (Count)
system.cpu.exec_context.thread_0.statExecutedInstType::SimdSha256Hash            0      0.00%     63.30% # Class of executed instruction. (Count)
system.cpu.exec_context.thread_0.statExecutedInstType::SimdSha256Hash2            0      0.00%     63.30% # Class of executed instruction. (Count)
system.cpu.exec_context.thread_0.statExecutedInstType::SimdShaSigma2            0      0.00%     63.30% # Class of executed instruction. (Count)
system.cpu.exec_context.thread_0.statExecutedInstType::SimdShaSigma3            0      0.00%     63.30% # Class of executed instruction. (Count)
system.cpu.exec_context.thread_0.statExecutedInstType::SimdPredAlu            0      0.00%     63.30% # Class of executed instruction. (Count)
system.cpu.exec_context.thread_0.statExecutedInstType::MemRead     25732099     21.51%     84.81% # Class of executed instruction. (Count)
system.cpu.exec_context.thread_0.statExecutedInstType::MemWrite     18170299     15.19%    100.00% # Class of executed instruction. (Count)
system.cpu.exec_context.thread_0.statExecutedInstType::FloatMemRead            0      0.00%    100.00% # Class of executed instruction. (Count)
system.cpu.exec_context.thread_0.statExecutedInstType::FloatMemWrite           18      0.00%    100.00% # Class of executed instruction. (Count)
system.cpu.exec_context.thread_0.statExecutedInstType::IprAccess            0      0.00%    100.00% # Class of executed instruction. (Count)
system.cpu.exec_context.thread_0.statExecutedInstType::InstPrefetch            0      0.00%    100.00% # Class of executed instruction. (Count)
system.cpu.exec_context.thread_0.statExecutedInstType::total    119638507                       # Class of executed instruction. (Count)
system.cpu.icache.demandHits::cpu.inst      118435637                       # number of demand (read+write) hits (Count)
system.cpu.icache.demandHits::total         118435637                       # number of demand (read+write) hits (Count)
system.cpu.icache.overallHits::cpu.inst     118435637                       # number of overall hits (Count)
system.cpu.icache.overallHits::total        118435637                       # number of overall hits (Count)
system.cpu.icache.demandMisses::cpu.inst      1202870                       # number of demand (read+write) misses (Count)
system.cpu.icache.demandMisses::total         1202870                       # number of demand (read+write) misses (Count)
system.cpu.icache.overallMisses::cpu.inst      1202870                       # number of overall misses (Count)
system.cpu.icache.overallMisses::total        1202870                       # number of overall misses (Count)
system.cpu.icache.demandMissLatency::cpu.inst  31341724000                       # number of demand (read+write) miss ticks (Tick)
system.cpu.icache.demandMissLatency::total  31341724000                       # number of demand (read+write) miss ticks (Tick)
system.cpu.icache.overallMissLatency::cpu.inst  31341724000                       # number of overall miss ticks (Tick)
system.cpu.icache.overallMissLatency::total  31341724000                       # number of overall miss ticks (Tick)
system.cpu.icache.demandAccesses::cpu.inst    119638507                       # number of demand (read+write) accesses (Count)
system.cpu.icache.demandAccesses::total     119638507                       # number of demand (read+write) accesses (Count)
system.cpu.icache.overallAccesses::cpu.inst    119638507                       # number of overall (read+write) accesses (Count)
system.cpu.icache.overallAccesses::total    119638507                       # number of overall (read+write) accesses (Count)
system.cpu.icache.demandMissRate::cpu.inst     0.010054                       # miss rate for demand accesses (Ratio)
system.cpu.icache.demandMissRate::total      0.010054                       # miss rate for demand accesses (Ratio)
system.cpu.icache.overallMissRate::cpu.inst     0.010054                       # miss rate for overall accesses (Ratio)
system.cpu.icache.overallMissRate::total     0.010054                       # miss rate for overall accesses (Ratio)
system.cpu.icache.demandAvgMissLatency::cpu.inst 26055.786577                       # average overall miss latency ((Cycle/Count))
system.cpu.icache.demandAvgMissLatency::total 26055.786577                       # average overall miss latency ((Cycle/Count))
system.cpu.icache.overallAvgMissLatency::cpu.inst 26055.786577                       # average overall miss latency ((Cycle/Count))
system.cpu.icache.overallAvgMissLatency::total 26055.786577                       # average overall miss latency ((Cycle/Count))
system.cpu.icache.blockedCycles::no_mshrs            0                       # number of cycles access was blocked (Cycle)
system.cpu.icache.blockedCycles::no_targets            0                       # number of cycles access was blocked (Cycle)
system.cpu.icache.blockedCauses::no_mshrs            0                       # number of times access was blocked (Count)
system.cpu.icache.blockedCauses::no_targets            0                       # number of times access was blocked (Count)
system.cpu.icache.avgBlocked::no_mshrs            nan                       # average number of cycles each access was blocked ((Cycle/Count))
system.cpu.icache.avgBlocked::no_targets          nan                       # average number of cycles each access was blocked ((Cycle/Count))
system.cpu.icache.demandMshrMisses::cpu.inst      1202870                       # number of demand (read+write) MSHR misses (Count)
system.cpu.icache.demandMshrMisses::total      1202870                       # number of demand (read+write) MSHR misses (Count)
system.cpu.icache.overallMshrMisses::cpu.inst      1202870                       # number of overall MSHR misses (Count)
system.cpu.icache.overallMshrMisses::total      1202870                       # number of overall MSHR misses (Count)
system.cpu.icache.demandMshrMissLatency::cpu.inst  28935984000                       # number of demand (read+write) MSHR miss ticks (Tick)
system.cpu.icache.demandMshrMissLatency::total  28935984000                       # number of demand (read+write) MSHR miss ticks (Tick)
system.cpu.icache.overallMshrMissLatency::cpu.inst  28935984000                       # number of overall MSHR miss ticks (Tick)
system.cpu.icache.overallMshrMissLatency::total  28935984000                       # number of overall MSHR miss ticks (Tick)
system.cpu.icache.demandMshrMissRate::cpu.inst     0.010054                       # mshr miss ratio for demand accesses (Ratio)
system.cpu.icache.demandMshrMissRate::total     0.010054                       # mshr miss ratio for demand accesses (Ratio)
system.cpu.icache.overallMshrMissRate::cpu.inst     0.010054                       # mshr miss ratio for overall accesses (Ratio)
system.cpu.icache.overallMshrMissRate::total     0.010054                       # mshr miss ratio for overall accesses (Ratio)
system.cpu.icache.demandAvgMshrMissLatency::cpu.inst 24055.786577                       # average overall mshr miss latency ((Cycle/Count))
system.cpu.icache.demandAvgMshrMissLatency::total 24055.786577                       # average overall mshr miss latency ((Cycle/Count))
system.cpu.icache.overallAvgMshrMissLatency::cpu.inst 24055.786577                       # average overall mshr miss latency ((Cycle/Count))
system.cpu.icache.overallAvgMshrMissLatency::total 24055.786577                       # average overall mshr miss latency ((Cycle/Count))
system.cpu.icache.replacements                1202639                       # number of replacements (Count)
system.cpu.icache.ReadReq.hits::cpu.inst    118435637                       # number of ReadReq hits (Count)
system.cpu.icache.ReadReq.hits::total       118435637                       # number of ReadReq hits (Count)
system.cpu.icache.ReadReq.misses::cpu.inst      1202870                       # number of ReadReq misses (Count)
system.cpu.icache.ReadReq.misses::total       1202870                       # number of ReadReq misses (Count)
system.cpu.icache.ReadReq.missLatency::cpu.inst  31341724000                       # number of ReadReq miss ticks (Tick)
system.cpu.icache.ReadReq.missLatency::total  31341724000                       # number of ReadReq miss ticks (Tick)
system.cpu.icache.ReadReq.accesses::cpu.inst    119638507                       # number of ReadReq accesses(hits+misses) (Count)
system.cpu.icache.ReadReq.accesses::total    119638507                       # number of ReadReq accesses(hits+misses) (Count)
system.cpu.icache.ReadReq.missRate::cpu.inst     0.010054                       # miss rate for ReadReq accesses (Ratio)
system.cpu.icache.ReadReq.missRate::total     0.010054                       # miss rate for ReadReq accesses (Ratio)
system.cpu.icache.ReadReq.avgMissLatency::cpu.inst 26055.786577                       # average ReadReq miss latency ((Tick/Count))
system.cpu.icache.ReadReq.avgMissLatency::total 26055.786577                       # average ReadReq miss latency ((Tick/Count))
system.cpu.icache.ReadReq.mshrMisses::cpu.inst      1202870                       # number of ReadReq MSHR misses (Count)
system.cpu.icache.ReadReq.mshrMisses::total      1202870                       # number of ReadReq MSHR misses (Count)
system.cpu.icache.ReadReq.mshrMissLatency::cpu.inst  28935984000                       # number of ReadReq MSHR miss ticks (Tick)
system.cpu.icache.ReadReq.mshrMissLatency::total  28935984000                       # number of ReadReq MSHR miss ticks (Tick)
system.cpu.icache.ReadReq.mshrMissRate::cpu.inst     0.010054                       # mshr miss rate for ReadReq accesses (Ratio)
system.cpu.icache.ReadReq.mshrMissRate::total     0.010054                       # mshr miss rate for ReadReq accesses (Ratio)
system.cpu.icache.ReadReq.avgMshrMissLatency::cpu.inst 24055.786577                       # average ReadReq mshr miss latency ((Tick/Count))
system.cpu.icache.ReadReq.avgMshrMissLatency::total 24055.786577                       # average ReadReq mshr miss latency ((Tick/Count))
system.cpu.icache.power_state.pwrStateResidencyTicks::UNDEFINED 380023537000                       # Cumulative time (in ticks) in various power states (Tick)
system.cpu.icache.tags.tagsInUse           217.094977                       # Average ticks per tags in use ((Tick/Count))
system.cpu.icache.tags.totalRefs            119638507                       # Total number of references to valid blocks. (Count)
system.cpu.icache.tags.sampledRefs            1202870                       # Sample count of references to valid blocks. (Count)
system.cpu.icache.tags.avgRefs              99.460879                       # Average number of references to valid blocks. ((Count/Count))
system.cpu.icache.tags.warmupTick              149000                       # The tick when the warmup percentage was hit. (Tick)
system.cpu.icache.tags.occupancies::cpu.inst   217.094977                       # Average occupied blocks per tick, per requestor ((Count/Tick))
system.cpu.icache.tags.avgOccs::cpu.inst     0.848027                       # Average percentage of cache occupancy ((Ratio/Tick))
system.cpu.icache.tags.avgOccs::total        0.848027                       # Average percentage of cache occupancy ((Ratio/Tick))
system.cpu.icache.tags.occupanciesTaskId::1024          231                       # Occupied blocks per task id (Count)
system.cpu.icache.tags.ageTaskId_1024::0           43                       # Occupied blocks per task id, per block age (Count)
system.cpu.icache.tags.ageTaskId_1024::1           37                       # Occupied blocks per task id, per block age (Count)
system.cpu.icache.tags.ageTaskId_1024::3            1                       # Occupied blocks per task id, per block age (Count)
system.cpu.icache.tags.ageTaskId_1024::4          150                       # Occupied blocks per task id, per block age (Count)
system.cpu.icache.tags.ratioOccsTaskId::1024     0.902344                       # Ratio of occupied blocks and all blocks, per task id (Ratio)
system.cpu.icache.tags.tagAccesses          120841377                       # Number of tag accesses (Count)
system.cpu.icache.tags.dataAccesses         120841377                       # Number of data accesses (Count)
system.cpu.icache.tags.power_state.pwrStateResidencyTicks::UNDEFINED 380023537000                       # Cumulative time (in ticks) in various power states (Tick)
system.cpu.power_state.pwrStateResidencyTicks::ON 380023537000                       # Cumulative time (in ticks) in various power states (Tick)
system.cpu.thread_0.numInsts                        0                       # Number of Instructions committed (Count)
system.cpu.thread_0.numOps                          0                       # Number of Ops committed (Count)
system.cpu.thread_0.numMemRefs                      0                       # Number of Memory References (Count)
system.cpu.workload.numSyscalls                   200                       # Number of system calls (Count)
system.l2bus.transDist::ReadResp              1363427                       # Transaction distribution (Count)
system.l2bus.transDist::WritebackDirty         308231                       # Transaction distribution (Count)
system.l2bus.transDist::CleanEvict            1342004                       # Transaction distribution (Count)
system.l2bus.transDist::UpgradeReq               7495                       # Transaction distribution (Count)
system.l2bus.transDist::UpgradeResp              7495                       # Transaction distribution (Count)
system.l2bus.transDist::ReadExReq              140061                       # Transaction distribution (Count)
system.l2bus.transDist::ReadExResp             140061                       # Transaction distribution (Count)
system.l2bus.transDist::ReadSharedReq         1363427                       # Transaction distribution (Count)
system.l2bus.pktCount_system.cpu.icache.mem_side_port::system.l2cache.cpu_side_port      3608379                       # Packet count per connected requestor and responder (Count)
system.l2bus.pktCount_system.cpu.dcache.mem_side_port::system.l2cache.cpu_side_port       916332                       # Packet count per connected requestor and responder (Count)
system.l2bus.pktCount::total                  4524711                       # Packet count per connected requestor and responder (Count)
system.l2bus.pktSize_system.cpu.icache.mem_side_port::system.l2cache.cpu_side_port     76983680                       # Cumulative packet size per connected requestor and responder (Byte)
system.l2bus.pktSize_system.cpu.dcache.mem_side_port::system.l2cache.cpu_side_port     32629888                       # Cumulative packet size per connected requestor and responder (Byte)
system.l2bus.pktSize::total                 109613568                       # Cumulative packet size per connected requestor and responder (Byte)
system.l2bus.snoops                            147490                       # Total snoops (Count)
system.l2bus.snoopTraffic                     6336448                       # Total snoop traffic (Byte)
system.l2bus.snoopFanout::samples             1658473                       # Request fanout histogram (Count)
system.l2bus.snoopFanout::mean               0.000459                       # Request fanout histogram (Count)
system.l2bus.snoopFanout::stdev              0.021416                       # Request fanout histogram (Count)
system.l2bus.snoopFanout::underflows                0      0.00%      0.00% # Request fanout histogram (Count)
system.l2bus.snoopFanout::0                   1657712     99.95%     99.95% # Request fanout histogram (Count)
system.l2bus.snoopFanout::1                       761      0.05%    100.00% # Request fanout histogram (Count)
system.l2bus.snoopFanout::2                         0      0.00%    100.00% # Request fanout histogram (Count)
system.l2bus.snoopFanout::overflows                 0      0.00%    100.00% # Request fanout histogram (Count)
system.l2bus.snoopFanout::min_value                 0                       # Request fanout histogram (Count)
system.l2bus.snoopFanout::max_value                 1                       # Request fanout histogram (Count)
system.l2bus.snoopFanout::total               1658473                       # Request fanout histogram (Count)
system.l2bus.power_state.pwrStateResidencyTicks::UNDEFINED 380023537000                       # Cumulative time (in ticks) in various power states (Tick)
system.l2bus.reqLayer0.occupancy           3432176000                       # Layer occupancy (ticks) (Tick)
system.l2bus.reqLayer0.utilization                0.0                       # Layer utilization (Ratio)
system.l2bus.respLayer0.occupancy          3608610000                       # Layer occupancy (ticks) (Tick)
system.l2bus.respLayer0.utilization               0.0                       # Layer utilization (Ratio)
system.l2bus.respLayer1.occupancy           909349000                       # Layer occupancy (ticks) (Tick)
system.l2bus.respLayer1.utilization               0.0                       # Layer utilization (Ratio)
system.l2bus.snoop_filter.totRequests         3013728                       # Total number of requests made to the snoop filter. (Count)
system.l2bus.snoop_filter.hitSingleRequests      1510240                       # Number of requests hitting in the snoop filter with a single holder of the requested data. (Count)
system.l2bus.snoop_filter.hitMultiRequests            1                       # Number of requests hitting in the snoop filter with multiple (>1) holders of the requested data. (Count)
system.l2bus.snoop_filter.totSnoops               760                       # Total number of snoops made to the snoop filter. (Count)
system.l2bus.snoop_filter.hitSingleSnoops          760                       # Number of snoops hitting in the snoop filter with a single holder of the requested data. (Count)
system.l2bus.snoop_filter.hitMultiSnoops            0                       # Number of snoops hitting in the snoop filter with multiple (>1) holders of the requested data. (Count)
system.l2cache.demandHits::cpu.inst           1202305                       # number of demand (read+write) hits (Count)
system.l2cache.demandHits::cpu.data            150132                       # number of demand (read+write) hits (Count)
system.l2cache.demandHits::total              1352437                       # number of demand (read+write) hits (Count)
system.l2cache.overallHits::cpu.inst          1202305                       # number of overall hits (Count)
system.l2cache.overallHits::cpu.data           150132                       # number of overall hits (Count)
system.l2cache.overallHits::total             1352437                       # number of overall hits (Count)
system.l2cache.demandMisses::cpu.inst             565                       # number of demand (read+write) misses (Count)
system.l2cache.demandMisses::cpu.data          150486                       # number of demand (read+write) misses (Count)
system.l2cache.demandMisses::total             151051                       # number of demand (read+write) misses (Count)
system.l2cache.overallMisses::cpu.inst            565                       # number of overall misses (Count)
system.l2cache.overallMisses::cpu.data         150486                       # number of overall misses (Count)
system.l2cache.overallMisses::total            151051                       # number of overall misses (Count)
system.l2cache.demandMissLatency::cpu.inst     78773000                       # number of demand (read+write) miss ticks (Tick)
system.l2cache.demandMissLatency::cpu.data  19541428000                       # number of demand (read+write) miss ticks (Tick)
system.l2cache.demandMissLatency::total   19620201000                       # number of demand (read+write) miss ticks (Tick)
system.l2cache.overallMissLatency::cpu.inst     78773000                       # number of overall miss ticks (Tick)
system.l2cache.overallMissLatency::cpu.data  19541428000                       # number of overall miss ticks (Tick)
system.l2cache.overallMissLatency::total  19620201000                       # number of overall miss ticks (Tick)
system.l2cache.demandAccesses::cpu.inst       1202870                       # number of demand (read+write) accesses (Count)
system.l2cache.demandAccesses::cpu.data        300618                       # number of demand (read+write) accesses (Count)
system.l2cache.demandAccesses::total          1503488                       # number of demand (read+write) accesses (Count)
system.l2cache.overallAccesses::cpu.inst      1202870                       # number of overall (read+write) accesses (Count)
system.l2cache.overallAccesses::cpu.data       300618                       # number of overall (read+write) accesses (Count)
system.l2cache.overallAccesses::total         1503488                       # number of overall (read+write) accesses (Count)
system.l2cache.demandMissRate::cpu.inst      0.000470                       # miss rate for demand accesses (Ratio)
system.l2cache.demandMissRate::cpu.data      0.500589                       # miss rate for demand accesses (Ratio)
system.l2cache.demandMissRate::total         0.100467                       # miss rate for demand accesses (Ratio)
system.l2cache.overallMissRate::cpu.inst     0.000470                       # miss rate for overall accesses (Ratio)
system.l2cache.overallMissRate::cpu.data     0.500589                       # miss rate for overall accesses (Ratio)
system.l2cache.overallMissRate::total        0.100467                       # miss rate for overall accesses (Ratio)
system.l2cache.demandAvgMissLatency::cpu.inst 139421.238938                       # average overall miss latency ((Cycle/Count))
system.l2cache.demandAvgMissLatency::cpu.data 129855.454992                       # average overall miss latency ((Cycle/Count))
system.l2cache.demandAvgMissLatency::total 129891.235411                       # average overall miss latency ((Cycle/Count))
system.l2cache.overallAvgMissLatency::cpu.inst 139421.238938                       # average overall miss latency ((Cycle/Count))
system.l2cache.overallAvgMissLatency::cpu.data 129855.454992                       # average overall miss latency ((Cycle/Count))
system.l2cache.overallAvgMissLatency::total 129891.235411                       # average overall miss latency ((Cycle/Count))
system.l2cache.blockedCycles::no_mshrs              0                       # number of cycles access was blocked (Cycle)
system.l2cache.blockedCycles::no_targets            0                       # number of cycles access was blocked (Cycle)
system.l2cache.blockedCauses::no_mshrs              0                       # number of times access was blocked (Count)
system.l2cache.blockedCauses::no_targets            0                       # number of times access was blocked (Count)
system.l2cache.avgBlocked::no_mshrs               nan                       # average number of cycles each access was blocked ((Cycle/Count))
system.l2cache.avgBlocked::no_targets             nan                       # average number of cycles each access was blocked ((Cycle/Count))
system.l2cache.writebacks::writebacks           99007                       # number of writebacks (Count)
system.l2cache.writebacks::total                99007                       # number of writebacks (Count)
system.l2cache.demandMshrMisses::cpu.inst          565                       # number of demand (read+write) MSHR misses (Count)
system.l2cache.demandMshrMisses::cpu.data       150486                       # number of demand (read+write) MSHR misses (Count)
system.l2cache.demandMshrMisses::total         151051                       # number of demand (read+write) MSHR misses (Count)
system.l2cache.overallMshrMisses::cpu.inst          565                       # number of overall MSHR misses (Count)
system.l2cache.overallMshrMisses::cpu.data       150486                       # number of overall MSHR misses (Count)
system.l2cache.overallMshrMisses::total        151051                       # number of overall MSHR misses (Count)
system.l2cache.demandMshrMissLatency::cpu.inst     67473000                       # number of demand (read+write) MSHR miss ticks (Tick)
system.l2cache.demandMshrMissLatency::cpu.data  16531708000                       # number of demand (read+write) MSHR miss ticks (Tick)
system.l2cache.demandMshrMissLatency::total  16599181000                       # number of demand (read+write) MSHR miss ticks (Tick)
system.l2cache.overallMshrMissLatency::cpu.inst     67473000                       # number of overall MSHR miss ticks (Tick)
system.l2cache.overallMshrMissLatency::cpu.data  16531708000                       # number of overall MSHR miss ticks (Tick)
system.l2cache.overallMshrMissLatency::total  16599181000                       # number of overall MSHR miss ticks (Tick)
system.l2cache.demandMshrMissRate::cpu.inst     0.000470                       # mshr miss ratio for demand accesses (Ratio)
system.l2cache.demandMshrMissRate::cpu.data     0.500589                       # mshr miss ratio for demand accesses (Ratio)
system.l2cache.demandMshrMissRate::total     0.100467                       # mshr miss ratio for demand accesses (Ratio)
system.l2cache.overallMshrMissRate::cpu.inst     0.000470                       # mshr miss ratio for overall accesses (Ratio)
system.l2cache.overallMshrMissRate::cpu.data     0.500589                       # mshr miss ratio for overall accesses (Ratio)
system.l2cache.overallMshrMissRate::total     0.100467                       # mshr miss ratio for overall accesses (Ratio)
system.l2cache.demandAvgMshrMissLatency::cpu.inst 119421.238938                       # average overall mshr miss latency ((Cycle/Count))
system.l2cache.demandAvgMshrMissLatency::cpu.data 109855.454992                       # average overall mshr miss latency ((Cycle/Count))
system.l2cache.demandAvgMshrMissLatency::total 109891.235411                       # average overall mshr miss latency ((Cycle/Count))
system.l2cache.overallAvgMshrMissLatency::cpu.inst 119421.238938                       # average overall mshr miss latency ((Cycle/Count))
system.l2cache.overallAvgMshrMissLatency::cpu.data 109855.454992                       # average overall mshr miss latency ((Cycle/Count))
system.l2cache.overallAvgMshrMissLatency::total 109891.235411                       # average overall mshr miss latency ((Cycle/Count))
system.l2cache.replacements                    146955                       # number of replacements (Count)
system.l2cache.CleanEvict.mshrMisses::writebacks          162                       # number of CleanEvict MSHR misses (Count)
system.l2cache.CleanEvict.mshrMisses::total          162                       # number of CleanEvict MSHR misses (Count)
system.l2cache.CleanEvict.mshrMissRate::writebacks          inf                       # mshr miss rate for CleanEvict accesses (Ratio)
system.l2cache.CleanEvict.mshrMissRate::total          inf                       # mshr miss rate for CleanEvict accesses (Ratio)
system.l2cache.ReadExReq.hits::cpu.data         68498                       # number of ReadExReq hits (Count)
system.l2cache.ReadExReq.hits::total            68498                       # number of ReadExReq hits (Count)
system.l2cache.ReadExReq.misses::cpu.data        71563                       # number of ReadExReq misses (Count)
system.l2cache.ReadExReq.misses::total          71563                       # number of ReadExReq misses (Count)
system.l2cache.ReadExReq.missLatency::cpu.data   9945367000                       # number of ReadExReq miss ticks (Tick)
system.l2cache.ReadExReq.missLatency::total   9945367000                       # number of ReadExReq miss ticks (Tick)
system.l2cache.ReadExReq.accesses::cpu.data       140061                       # number of ReadExReq accesses(hits+misses) (Count)
system.l2cache.ReadExReq.accesses::total       140061                       # number of ReadExReq accesses(hits+misses) (Count)
system.l2cache.ReadExReq.missRate::cpu.data     0.510942                       # miss rate for ReadExReq accesses (Ratio)
system.l2cache.ReadExReq.missRate::total     0.510942                       # miss rate for ReadExReq accesses (Ratio)
system.l2cache.ReadExReq.avgMissLatency::cpu.data 138973.589704                       # average ReadExReq miss latency ((Tick/Count))
system.l2cache.ReadExReq.avgMissLatency::total 138973.589704                       # average ReadExReq miss latency ((Tick/Count))
system.l2cache.ReadExReq.mshrMisses::cpu.data        71563                       # number of ReadExReq MSHR misses (Count)
system.l2cache.ReadExReq.mshrMisses::total        71563                       # number of ReadExReq MSHR misses (Count)
system.l2cache.ReadExReq.mshrMissLatency::cpu.data   8514107000                       # number of ReadExReq MSHR miss ticks (Tick)
system.l2cache.ReadExReq.mshrMissLatency::total   8514107000                       # number of ReadExReq MSHR miss ticks (Tick)
system.l2cache.ReadExReq.mshrMissRate::cpu.data     0.510942                       # mshr miss rate for ReadExReq accesses (Ratio)
system.l2cache.ReadExReq.mshrMissRate::total     0.510942                       # mshr miss rate for ReadExReq accesses (Ratio)
system.l2cache.ReadExReq.avgMshrMissLatency::cpu.data 118973.589704                       # average ReadExReq mshr miss latency ((Tick/Count))
system.l2cache.ReadExReq.avgMshrMissLatency::total 118973.589704                       # average ReadExReq mshr miss latency ((Tick/Count))
system.l2cache.ReadSharedReq.hits::cpu.inst      1202305                       # number of ReadSharedReq hits (Count)
system.l2cache.ReadSharedReq.hits::cpu.data        81634                       # number of ReadSharedReq hits (Count)
system.l2cache.ReadSharedReq.hits::total      1283939                       # number of ReadSharedReq hits (Count)
system.l2cache.ReadSharedReq.misses::cpu.inst          565                       # number of ReadSharedReq misses (Count)
system.l2cache.ReadSharedReq.misses::cpu.data        78923                       # number of ReadSharedReq misses (Count)
system.l2cache.ReadSharedReq.misses::total        79488                       # number of ReadSharedReq misses (Count)
system.l2cache.ReadSharedReq.missLatency::cpu.inst     78773000                       # number of ReadSharedReq miss ticks (Tick)
system.l2cache.ReadSharedReq.missLatency::cpu.data   9596061000                       # number of ReadSharedReq miss ticks (Tick)
system.l2cache.ReadSharedReq.missLatency::total   9674834000                       # number of ReadSharedReq miss ticks (Tick)
system.l2cache.ReadSharedReq.accesses::cpu.inst      1202870                       # number of ReadSharedReq accesses(hits+misses) (Count)
system.l2cache.ReadSharedReq.accesses::cpu.data       160557                       # number of ReadSharedReq accesses(hits+misses) (Count)
system.l2cache.ReadSharedReq.accesses::total      1363427                       # number of ReadSharedReq accesses(hits+misses) (Count)
system.l2cache.ReadSharedReq.missRate::cpu.inst     0.000470                       # miss rate for ReadSharedReq accesses (Ratio)
system.l2cache.ReadSharedReq.missRate::cpu.data     0.491558                       # miss rate for ReadSharedReq accesses (Ratio)
system.l2cache.ReadSharedReq.missRate::total     0.058300                       # miss rate for ReadSharedReq accesses (Ratio)
system.l2cache.ReadSharedReq.avgMissLatency::cpu.inst 139421.238938                       # average ReadSharedReq miss latency ((Tick/Count))
system.l2cache.ReadSharedReq.avgMissLatency::cpu.data 121587.636050                       # average ReadSharedReq miss latency ((Tick/Count))
system.l2cache.ReadSharedReq.avgMissLatency::total 121714.397142                       # average ReadSharedReq miss latency ((Tick/Count))
system.l2cache.ReadSharedReq.mshrMisses::cpu.inst          565                       # number of ReadSharedReq MSHR misses (Count)
system.l2cache.ReadSharedReq.mshrMisses::cpu.data        78923                       # number of ReadSharedReq MSHR misses (Count)
system.l2cache.ReadSharedReq.mshrMisses::total        79488                       # number of ReadSharedReq MSHR misses (Count)
system.l2cache.ReadSharedReq.mshrMissLatency::cpu.inst     67473000                       # number of ReadSharedReq MSHR miss ticks (Tick)
system.l2cache.ReadSharedReq.mshrMissLatency::cpu.data   8017601000                       # number of ReadSharedReq MSHR miss ticks (Tick)
system.l2cache.ReadSharedReq.mshrMissLatency::total   8085074000                       # number of ReadSharedReq MSHR miss ticks (Tick)
system.l2cache.ReadSharedReq.mshrMissRate::cpu.inst     0.000470                       # mshr miss rate for ReadSharedReq accesses (Ratio)
system.l2cache.ReadSharedReq.mshrMissRate::cpu.data     0.491558                       # mshr miss rate for ReadSharedReq accesses (Ratio)
system.l2cache.ReadSharedReq.mshrMissRate::total     0.058300                       # mshr miss rate for ReadSharedReq accesses (Ratio)
system.l2cache.ReadSharedReq.avgMshrMissLatency::cpu.inst 119421.238938                       # average ReadSharedReq mshr miss latency ((Tick/Count))
system.l2cache.ReadSharedReq.avgMshrMissLatency::cpu.data 101587.636050                       # average ReadSharedReq mshr miss latency ((Tick/Count))
system.l2cache.ReadSharedReq.avgMshrMissLatency::total 101714.397142                       # average ReadSharedReq mshr miss latency ((Tick/Count))
system.l2cache.UpgradeReq.hits::cpu.data         7495                       # number of UpgradeReq hits (Count)
system.l2cache.UpgradeReq.hits::total            7495                       # number of UpgradeReq hits (Count)
system.l2cache.UpgradeReq.accesses::cpu.data         7495                       # number of UpgradeReq accesses(hits+misses) (Count)
system.l2cache.UpgradeReq.accesses::total         7495                       # number of UpgradeReq accesses(hits+misses) (Count)
system.l2cache.WritebackDirty.hits::writebacks       209224                       # number of WritebackDirty hits (Count)
system.l2cache.WritebackDirty.hits::total       209224                       # number of WritebackDirty hits (Count)
system.l2cache.WritebackDirty.accesses::writebacks       209224                       # number of WritebackDirty accesses(hits+misses) (Count)
system.l2cache.WritebackDirty.accesses::total       209224                       # number of WritebackDirty accesses(hits+misses) (Count)
system.l2cache.power_state.pwrStateResidencyTicks::UNDEFINED 380023537000                       # Cumulative time (in ticks) in various power states (Tick)
system.l2cache.tags.tagsInUse             4086.665698                       # Average ticks per tags in use ((Tick/Count))
system.l2cache.tags.totalRefs                 3013565                       # Total number of references to valid blocks. (Count)
system.l2cache.tags.sampledRefs                151051                       # Sample count of references to valid blocks. (Count)
system.l2cache.tags.avgRefs                 19.950646                       # Average number of references to valid blocks. ((Count/Count))
system.l2cache.tags.warmupTick                 128000                       # The tick when the warmup percentage was hit. (Tick)
system.l2cache.tags.occupancies::cpu.inst    25.916917                       # Average occupied blocks per tick, per requestor ((Count/Tick))
system.l2cache.tags.occupancies::cpu.data  4060.748782                       # Average occupied blocks per tick, per requestor ((Count/Tick))
system.l2cache.tags.avgOccs::cpu.inst        0.006327                       # Average percentage of cache occupancy ((Ratio/Tick))
system.l2cache.tags.avgOccs::cpu.data        0.991394                       # Average percentage of cache occupancy ((Ratio/Tick))
system.l2cache.tags.avgOccs::total           0.997721                       # Average percentage of cache occupancy ((Ratio/Tick))
system.l2cache.tags.occupanciesTaskId::1024         4096                       # Occupied blocks per task id (Count)
system.l2cache.tags.ageTaskId_1024::0              57                       # Occupied blocks per task id, per block age (Count)
system.l2cache.tags.ageTaskId_1024::1              74                       # Occupied blocks per task id, per block age (Count)
system.l2cache.tags.ageTaskId_1024::2             241                       # Occupied blocks per task id, per block age (Count)
system.l2cache.tags.ageTaskId_1024::3            2405                       # Occupied blocks per task id, per block age (Count)
system.l2cache.tags.ageTaskId_1024::4            1319                       # Occupied blocks per task id, per block age (Count)
system.l2cache.tags.ratioOccsTaskId::1024            1                       # Ratio of occupied blocks and all blocks, per task id (Ratio)
system.l2cache.tags.tagAccesses              24260867                       # Number of tag accesses (Count)
system.l2cache.tags.dataAccesses             24260867                       # Number of data accesses (Count)
system.l2cache.tags.power_state.pwrStateResidencyTicks::UNDEFINED 380023537000                       # Cumulative time (in ticks) in various power states (Tick)
system.l3bus.transDist::ReadResp                79488                       # Transaction distribution (Count)
system.l3bus.transDist::WritebackDirty         155838                       # Transaction distribution (Count)
system.l3bus.transDist::CleanEvict              52182                       # Transaction distribution (Count)
system.l3bus.transDist::ReadExReq               71563                       # Transaction distribution (Count)
system.l3bus.transDist::ReadExResp              71563                       # Transaction distribution (Count)
system.l3bus.transDist::ReadSharedReq           79488                       # Transaction distribution (Count)
system.l3bus.pktCount_system.l2cache.mem_side_port::system.l3cache.cpu_side_port       448907                       # Packet count per connected requestor and responder (Count)
system.l3bus.pktSize_system.l2cache.mem_side_port::system.l3cache.cpu_side_port     16003712                       # Cumulative packet size per connected requestor and responder (Byte)
system.l3bus.snoops                             61215                       # Total snoops (Count)
system.l3bus.snoopTraffic                     3637184                       # Total snoop traffic (Byte)
system.l3bus.snoopFanout::samples              212266                       # Request fanout histogram (Count)
system.l3bus.snoopFanout::mean               0.002520                       # Request fanout histogram (Count)
system.l3bus.snoopFanout::stdev              0.050141                       # Request fanout histogram (Count)
system.l3bus.snoopFanout::underflows                0      0.00%      0.00% # Request fanout histogram (Count)
system.l3bus.snoopFanout::0                    211731     99.75%     99.75% # Request fanout histogram (Count)
system.l3bus.snoopFanout::1                       535      0.25%    100.00% # Request fanout histogram (Count)
system.l3bus.snoopFanout::overflows                 0      0.00%    100.00% # Request fanout histogram (Count)
system.l3bus.snoopFanout::min_value                 0                       # Request fanout histogram (Count)
system.l3bus.snoopFanout::max_value                 1                       # Request fanout histogram (Count)
system.l3bus.snoopFanout::total                212266                       # Request fanout histogram (Count)
system.l3bus.power_state.pwrStateResidencyTicks::UNDEFINED 380023537000                       # Cumulative time (in ticks) in various power states (Tick)
system.l3bus.reqLayer0.occupancy            495870000                       # Layer occupancy (ticks) (Tick)
system.l3bus.reqLayer0.utilization                0.0                       # Layer utilization (Ratio)
system.l3bus.respLayer0.occupancy           453153000                       # Layer occupancy (ticks) (Tick)
system.l3bus.respLayer0.utilization               0.0                       # Layer utilization (Ratio)
system.l3bus.snoop_filter.totRequests          297856                       # Total number of requests made to the snoop filter. (Count)
system.l3bus.snoop_filter.hitSingleRequests       146805                       # Number of requests hitting in the snoop filter with a single holder of the requested data. (Count)
system.l3bus.snoop_filter.hitMultiRequests            0                       # Number of requests hitting in the snoop filter with multiple (>1) holders of the requested data. (Count)
system.l3bus.snoop_filter.totSnoops               535                       # Total number of snoops made to the snoop filter. (Count)
system.l3bus.snoop_filter.hitSingleSnoops          535                       # Number of snoops hitting in the snoop filter with a single holder of the requested data. (Count)
system.l3bus.snoop_filter.hitMultiSnoops            0                       # Number of snoops hitting in the snoop filter with multiple (>1) holders of the requested data. (Count)
system.l3cache.demandHits::cpu.inst                12                       # number of demand (read+write) hits (Count)
system.l3cache.demandHits::cpu.data             24311                       # number of demand (read+write) hits (Count)
system.l3cache.demandHits::total                24323                       # number of demand (read+write) hits (Count)
system.l3cache.overallHits::cpu.inst               12                       # number of overall hits (Count)
system.l3cache.overallHits::cpu.data            24311                       # number of overall hits (Count)
system.l3cache.overallHits::total               24323                       # number of overall hits (Count)
system.l3cache.demandMisses::cpu.inst             553                       # number of demand (read+write) misses (Count)
system.l3cache.demandMisses::cpu.data          126175                       # number of demand (read+write) misses (Count)
system.l3cache.demandMisses::total             126728                       # number of demand (read+write) misses (Count)
system.l3cache.overallMisses::cpu.inst            553                       # number of overall misses (Count)
system.l3cache.overallMisses::cpu.data         126175                       # number of overall misses (Count)
system.l3cache.overallMisses::total            126728                       # number of overall misses (Count)
system.l3cache.demandMissLatency::cpu.inst     54791000                       # number of demand (read+write) miss ticks (Tick)
system.l3cache.demandMissLatency::cpu.data  12710485000                       # number of demand (read+write) miss ticks (Tick)
system.l3cache.demandMissLatency::total   12765276000                       # number of demand (read+write) miss ticks (Tick)
system.l3cache.overallMissLatency::cpu.inst     54791000                       # number of overall miss ticks (Tick)
system.l3cache.overallMissLatency::cpu.data  12710485000                       # number of overall miss ticks (Tick)
system.l3cache.overallMissLatency::total  12765276000                       # number of overall miss ticks (Tick)
system.l3cache.demandAccesses::cpu.inst           565                       # number of demand (read+write) accesses (Count)
system.l3cache.demandAccesses::cpu.data        150486                       # number of demand (read+write) accesses (Count)
system.l3cache.demandAccesses::total           151051                       # number of demand (read+write) accesses (Count)
system.l3cache.overallAccesses::cpu.inst          565                       # number of overall (read+write) accesses (Count)
system.l3cache.overallAccesses::cpu.data       150486                       # number of overall (read+write) accesses (Count)
system.l3cache.overallAccesses::total          151051                       # number of overall (read+write) accesses (Count)
system.l3cache.demandMissRate::cpu.inst      0.978761                       # miss rate for demand accesses (Ratio)
system.l3cache.demandMissRate::cpu.data      0.838450                       # miss rate for demand accesses (Ratio)
system.l3cache.demandMissRate::total         0.838975                       # miss rate for demand accesses (Ratio)
system.l3cache.overallMissRate::cpu.inst     0.978761                       # miss rate for overall accesses (Ratio)
system.l3cache.overallMissRate::cpu.data     0.838450                       # miss rate for overall accesses (Ratio)
system.l3cache.overallMissRate::total        0.838975                       # miss rate for overall accesses (Ratio)
system.l3cache.demandAvgMissLatency::cpu.inst 99079.566004                       # average overall miss latency ((Cycle/Count))
system.l3cache.demandAvgMissLatency::cpu.data 100736.952645                       # average overall miss latency ((Cycle/Count))
system.l3cache.demandAvgMissLatency::total 100729.720346                       # average overall miss latency ((Cycle/Count))
system.l3cache.overallAvgMissLatency::cpu.inst 99079.566004                       # average overall miss latency ((Cycle/Count))
system.l3cache.overallAvgMissLatency::cpu.data 100736.952645                       # average overall miss latency ((Cycle/Count))
system.l3cache.overallAvgMissLatency::total 100729.720346                       # average overall miss latency ((Cycle/Count))
system.l3cache.blockedCycles::no_mshrs              0                       # number of cycles access was blocked (Cycle)
system.l3cache.blockedCycles::no_targets            0                       # number of cycles access was blocked (Cycle)
system.l3cache.blockedCauses::no_mshrs              0                       # number of times access was blocked (Count)
system.l3cache.blockedCauses::no_targets            0                       # number of times access was blocked (Count)
system.l3cache.avgBlocked::no_mshrs               nan                       # average number of cycles each access was blocked ((Cycle/Count))
system.l3cache.avgBlocked::no_targets             nan                       # average number of cycles each access was blocked ((Cycle/Count))
system.l3cache.writebacks::writebacks           56831                       # number of writebacks (Count)
system.l3cache.writebacks::total                56831                       # number of writebacks (Count)
system.l3cache.demandMshrMisses::cpu.inst          553                       # number of demand (read+write) MSHR misses (Count)
system.l3cache.demandMshrMisses::cpu.data       126175                       # number of demand (read+write) MSHR misses (Count)
system.l3cache.demandMshrMisses::total         126728                       # number of demand (read+write) MSHR misses (Count)
system.l3cache.overallMshrMisses::cpu.inst          553                       # number of overall MSHR misses (Count)
system.l3cache.overallMshrMisses::cpu.data       126175                       # number of overall MSHR misses (Count)
system.l3cache.overallMshrMisses::total        126728                       # number of overall MSHR misses (Count)
system.l3cache.demandMshrMissLatency::cpu.inst     43731000                       # number of demand (read+write) MSHR miss ticks (Tick)
system.l3cache.demandMshrMissLatency::cpu.data  10186985000                       # number of demand (read+write) MSHR miss ticks (Tick)
system.l3cache.demandMshrMissLatency::total  10230716000                       # number of demand (read+write) MSHR miss ticks (Tick)
system.l3cache.overallMshrMissLatency::cpu.inst     43731000                       # number of overall MSHR miss ticks (Tick)
system.l3cache.overallMshrMissLatency::cpu.data  10186985000                       # number of overall MSHR miss ticks (Tick)
system.l3cache.overallMshrMissLatency::total  10230716000                       # number of overall MSHR miss ticks (Tick)
system.l3cache.demandMshrMissRate::cpu.inst     0.978761                       # mshr miss ratio for demand accesses (Ratio)
system.l3cache.demandMshrMissRate::cpu.data     0.838450                       # mshr miss ratio for demand accesses (Ratio)
system.l3cache.demandMshrMissRate::total     0.838975                       # mshr miss ratio for demand accesses (Ratio)
system.l3cache.overallMshrMissRate::cpu.inst     0.978761                       # mshr miss ratio for overall accesses (Ratio)
system.l3cache.overallMshrMissRate::cpu.data     0.838450                       # mshr miss ratio for overall accesses (Ratio)
system.l3cache.overallMshrMissRate::total     0.838975                       # mshr miss ratio for overall accesses (Ratio)
system.l3cache.demandAvgMshrMissLatency::cpu.inst 79079.566004                       # average overall mshr miss latency ((Cycle/Count))
system.l3cache.demandAvgMshrMissLatency::cpu.data 80736.952645                       # average overall mshr miss latency ((Cycle/Count))
system.l3cache.demandAvgMshrMissLatency::total 80729.720346                       # average overall mshr miss latency ((Cycle/Count))
system.l3cache.overallAvgMshrMissLatency::cpu.inst 79079.566004                       # average overall mshr miss latency ((Cycle/Count))
system.l3cache.overallAvgMshrMissLatency::cpu.data 80736.952645                       # average overall mshr miss latency ((Cycle/Count))
system.l3cache.overallAvgMshrMissLatency::total 80729.720346                       # average overall mshr miss latency ((Cycle/Count))
system.l3cache.replacements                     61215                       # number of replacements (Count)
system.l3cache.CleanEvict.mshrMisses::writebacks          149                       # number of CleanEvict MSHR misses (Count)
system.l3cache.CleanEvict.mshrMisses::total          149                       # number of CleanEvict MSHR misses (Count)
system.l3cache.CleanEvict.mshrMissRate::writebacks          inf                       # mshr miss rate for CleanEvict accesses (Ratio)
system.l3cache.CleanEvict.mshrMissRate::total          inf                       # mshr miss rate for CleanEvict accesses (Ratio)
system.l3cache.ReadExReq.hits::cpu.data            16                       # number of ReadExReq hits (Count)
system.l3cache.ReadExReq.hits::total               16                       # number of ReadExReq hits (Count)
system.l3cache.ReadExReq.misses::cpu.data        71547                       # number of ReadExReq misses (Count)
system.l3cache.ReadExReq.misses::total          71547                       # number of ReadExReq misses (Count)
system.l3cache.ReadExReq.missLatency::cpu.data   6939385000                       # number of ReadExReq miss ticks (Tick)
system.l3cache.ReadExReq.missLatency::total   6939385000                       # number of ReadExReq miss ticks (Tick)
system.l3cache.ReadExReq.accesses::cpu.data        71563                       # number of ReadExReq accesses(hits+misses) (Count)
system.l3cache.ReadExReq.accesses::total        71563                       # number of ReadExReq accesses(hits+misses) (Count)
system.l3cache.ReadExReq.missRate::cpu.data     0.999776                       # miss rate for ReadExReq accesses (Ratio)
system.l3cache.ReadExReq.missRate::total     0.999776                       # miss rate for ReadExReq accesses (Ratio)
system.l3cache.ReadExReq.avgMissLatency::cpu.data 96990.579619                       # average ReadExReq miss latency ((Tick/Count))
system.l3cache.ReadExReq.avgMissLatency::total 96990.579619                       # average ReadExReq miss latency ((Tick/Count))
system.l3cache.ReadExReq.mshrMisses::cpu.data        71547                       # number of ReadExReq MSHR misses (Count)
system.l3cache.ReadExReq.mshrMisses::total        71547                       # number of ReadExReq MSHR misses (Count)
system.l3cache.ReadExReq.mshrMissLatency::cpu.data   5508445000                       # number of ReadExReq MSHR miss ticks (Tick)
system.l3cache.ReadExReq.mshrMissLatency::total   5508445000                       # number of ReadExReq MSHR miss ticks (Tick)
system.l3cache.ReadExReq.mshrMissRate::cpu.data     0.999776                       # mshr miss rate for ReadExReq accesses (Ratio)
system.l3cache.ReadExReq.mshrMissRate::total     0.999776                       # mshr miss rate for ReadExReq accesses (Ratio)
system.l3cache.ReadExReq.avgMshrMissLatency::cpu.data 76990.579619                       # average ReadExReq mshr miss latency ((Tick/Count))
system.l3cache.ReadExReq.avgMshrMissLatency::total 76990.579619                       # average ReadExReq mshr miss latency ((Tick/Count))
system.l3cache.ReadSharedReq.hits::cpu.inst           12                       # number of ReadSharedReq hits (Count)
system.l3cache.ReadSharedReq.hits::cpu.data        24295                       # number of ReadSharedReq hits (Count)
system.l3cache.ReadSharedReq.hits::total        24307                       # number of ReadSharedReq hits (Count)
system.l3cache.ReadSharedReq.misses::cpu.inst          553                       # number of ReadSharedReq misses (Count)
system.l3cache.ReadSharedReq.misses::cpu.data        54628                       # number of ReadSharedReq misses (Count)
system.l3cache.ReadSharedReq.misses::total        55181                       # number of ReadSharedReq misses (Count)
system.l3cache.ReadSharedReq.missLatency::cpu.inst     54791000                       # number of ReadSharedReq miss ticks (Tick)
system.l3cache.ReadSharedReq.missLatency::cpu.data   5771100000                       # number of ReadSharedReq miss ticks (Tick)
system.l3cache.ReadSharedReq.missLatency::total   5825891000                       # number of ReadSharedReq miss ticks (Tick)
system.l3cache.ReadSharedReq.accesses::cpu.inst          565                       # number of ReadSharedReq accesses(hits+misses) (Count)
system.l3cache.ReadSharedReq.accesses::cpu.data        78923                       # number of ReadSharedReq accesses(hits+misses) (Count)
system.l3cache.ReadSharedReq.accesses::total        79488                       # number of ReadSharedReq accesses(hits+misses) (Count)
system.l3cache.ReadSharedReq.missRate::cpu.inst     0.978761                       # miss rate for ReadSharedReq accesses (Ratio)
system.l3cache.ReadSharedReq.missRate::cpu.data     0.692168                       # miss rate for ReadSharedReq accesses (Ratio)
[...]
system.mem_ctrl.dram.bytesInstRead::total        35392                       # Number of instructions bytes read from this memory (Byte)
system.mem_ctrl.dram.bytesWritten::writebacks      3637184                       # Number of bytes written to this memory (Byte)
system.mem_ctrl.dram.bytesWritten::total      3637184                       # Number of bytes written to this memory (Byte)
system.mem_ctrl.dram.numReads::cpu.inst           553                       # Number of read requests responded to by this memory (Count)
system.mem_ctrl.dram.numReads::cpu.data        126175                       # Number of read requests responded to by this memory (Count)
system.mem_ctrl.dram.numReads::total           126728                       # Number of read requests responded to by this memory (Count)
system.mem_ctrl.dram.numWrites::writebacks        56831                       # Number of write requests responded to by this memory (Count)
system.mem_ctrl.dram.numWrites::total           56831                       # Number of write requests responded to by this memory (Count)
system.mem_ctrl.dram.bwRead::cpu.inst           93131                       # Total read bandwidth from this memory ((Byte/Second))
system.mem_ctrl.dram.bwRead::cpu.data        21249210                       # Total read bandwidth from this memory ((Byte/Second))
system.mem_ctrl.dram.bwRead::total           21342341                       # Total read bandwidth from this memory ((Byte/Second))
system.mem_ctrl.dram.bwInstRead::cpu.inst        93131                       # Instruction read bandwidth from this memory ((Byte/Second))
system.mem_ctrl.dram.bwInstRead::total          93131                       # Instruction read bandwidth from this memory ((Byte/Second))
system.mem_ctrl.dram.bwWrite::writebacks      9570944                       # Write bandwidth from this memory ((Byte/Second))
system.mem_ctrl.dram.bwWrite::total           9570944                       # Write bandwidth from this memory ((Byte/Second))
system.mem_ctrl.dram.bwTotal::writebacks      9570944                       # Total bandwidth to/from this memory ((Byte/Second))
system.mem_ctrl.dram.bwTotal::cpu.inst          93131                       # Total bandwidth to/from this memory ((Byte/Second))
system.mem_ctrl.dram.bwTotal::cpu.data       21249210                       # Total bandwidth to/from this memory ((Byte/Second))
system.mem_ctrl.dram.bwTotal::total          30913285                       # Total bandwidth to/from this memory ((Byte/Second))
system.mem_ctrl.dram.readBursts                126680                       # Number of DRAM read bursts (Count)
system.mem_ctrl.dram.writeBursts                56802                       # Number of DRAM write bursts (Count)
system.mem_ctrl.dram.perBankRdBursts::0          8857                       # Per bank write bursts (Count)
system.mem_ctrl.dram.perBankRdBursts::1          8162                       # Per bank write bursts (Count)
system.mem_ctrl.dram.perBankRdBursts::2          7332                       # Per bank write bursts (Count)
system.mem_ctrl.dram.perBankRdBursts::3          8519                       # Per bank write bursts (Count)
system.mem_ctrl.dram.perBankRdBursts::4          7077                       # Per bank write bursts (Count)
system.mem_ctrl.dram.perBankRdBursts::5          8196                       # Per bank write bursts (Count)
system.mem_ctrl.dram.perBankRdBursts::6          7552                       # Per bank write bursts (Count)
system.mem_ctrl.dram.perBankRdBursts::7          7818                       # Per bank write bursts (Count)
system.mem_ctrl.dram.perBankRdBursts::8          8205                       # Per bank write bursts (Count)
system.mem_ctrl.dram.perBankRdBursts::9          7440                       # Per bank write bursts (Count)
system.mem_ctrl.dram.perBankRdBursts::10         7763                       # Per bank write bursts (Count)
system.mem_ctrl.dram.perBankRdBursts::11         8155                       # Per bank write bursts (Count)
system.mem_ctrl.dram.perBankRdBursts::12         7299                       # Per bank write bursts (Count)
system.mem_ctrl.dram.perBankRdBursts::13         8013                       # Per bank write bursts (Count)
system.mem_ctrl.dram.perBankRdBursts::14         7992                       # Per bank write bursts (Count)
system.mem_ctrl.dram.perBankRdBursts::15         8300                       # Per bank write bursts (Count)
system.mem_ctrl.dram.perBankWrBursts::0          4276                       # Per bank write bursts (Count)
system.mem_ctrl.dram.perBankWrBursts::1          3768                       # Per bank write bursts (Count)
system.mem_ctrl.dram.perBankWrBursts::2          3148                       # Per bank write bursts (Count)
system.mem_ctrl.dram.perBankWrBursts::3          4024                       # Per bank write bursts (Count)
system.mem_ctrl.dram.perBankWrBursts::4          2846                       # Per bank write bursts (Count)
system.mem_ctrl.dram.perBankWrBursts::5          3908                       # Per bank write bursts (Count)
system.mem_ctrl.dram.perBankWrBursts::6          3208                       # Per bank write bursts (Count)
system.mem_ctrl.dram.perBankWrBursts::7          3421                       # Per bank write bursts (Count)
system.mem_ctrl.dram.perBankWrBursts::8          3903                       # Per bank write bursts (Count)
system.mem_ctrl.dram.perBankWrBursts::9          3102                       # Per bank write bursts (Count)
system.mem_ctrl.dram.perBankWrBursts::10         3392                       # Per bank write bursts (Count)
system.mem_ctrl.dram.perBankWrBursts::11         3830                       # Per bank write bursts (Count)
system.mem_ctrl.dram.perBankWrBursts::12         2957                       # Per bank write bursts (Count)
system.mem_ctrl.dram.perBankWrBursts::13         3566                       # Per bank write bursts (Count)
system.mem_ctrl.dram.perBankWrBursts::14         3613                       # Per bank write bursts (Count)
system.mem_ctrl.dram.perBankWrBursts::15         3840                       # Per bank write bursts (Count)
system.mem_ctrl.dram.totQLat               1347916000                       # Total ticks spent queuing (Tick)
system.mem_ctrl.dram.totBusLat              633400000                       # Total ticks spent in databus transfers (Tick)
system.mem_ctrl.dram.totMemAccLat          3723166000                       # Total ticks spent from burst creation until serviced by the DRAM (Tick)
system.mem_ctrl.dram.avgQLat                 10640.32                       # Average queueing delay per DRAM burst ((Tick/Count))
system.mem_ctrl.dram.avgBusLat                5000.00                       # Average bus latency per DRAM burst ((Tick/Count))
system.mem_ctrl.dram.avgMemAccLat            29390.32                       # Average memory access latency per DRAM burst ((Tick/Count))
system.mem_ctrl.dram.readRowHits                73576                       # Number of row buffer hits during reads (Count)
system.mem_ctrl.dram.writeRowHits               48575                       # Number of row buffer hits during writes (Count)
system.mem_ctrl.dram.readRowHitRate             58.08                       # Row buffer hit rate for reads (Ratio)
system.mem_ctrl.dram.writeRowHitRate            85.52                       # Row buffer hit rate for writes (Ratio)
system.mem_ctrl.dram.bytesPerActivate::samples        61331                       # Bytes accessed per row activation (Byte)
system.mem_ctrl.dram.bytesPerActivate::mean   191.466762                       # Bytes accessed per row activation (Byte)
system.mem_ctrl.dram.bytesPerActivate::gmean   137.999847                       # Bytes accessed per row activation (Byte)
system.mem_ctrl.dram.bytesPerActivate::stdev   201.690389                       # Bytes accessed per row activation (Byte)
system.mem_ctrl.dram.bytesPerActivate::0-127        21475     35.01%     35.01% # Bytes accessed per row activation (Byte)
system.mem_ctrl.dram.bytesPerActivate::128-255        20927     34.12%     69.14% # Bytes accessed per row activation (Byte)
system.mem_ctrl.dram.bytesPerActivate::256-383        14451     23.56%     92.70% # Bytes accessed per row activation (Byte)
system.mem_ctrl.dram.bytesPerActivate::384-511          542      0.88%     93.58% # Bytes accessed per row activation (Byte)
system.mem_ctrl.dram.bytesPerActivate::512-639          380      0.62%     94.20% # Bytes accessed per row activation (Byte)
system.mem_ctrl.dram.bytesPerActivate::640-767          777      1.27%     95.47% # Bytes accessed per row activation (Byte)
system.mem_ctrl.dram.bytesPerActivate::768-895          349      0.57%     96.04% # Bytes accessed per row activation (Byte)
system.mem_ctrl.dram.bytesPerActivate::896-1023          910      1.48%     97.52% # Bytes accessed per row activation (Byte)
system.mem_ctrl.dram.bytesPerActivate::1024-1151         1520      2.48%    100.00% # Bytes accessed per row activation (Byte)
system.mem_ctrl.dram.bytesPerActivate::total        61331                       # Bytes accessed per row activation (Byte)
system.mem_ctrl.dram.bytesRead                8107520                       # Total bytes read (Byte)
system.mem_ctrl.dram.bytesWritten             3635328                       # Total bytes written (Byte)
system.mem_ctrl.dram.avgRdBW                21.334258                       # Average DRAM read bandwidth in MiBytes/s ((Byte/Second))
system.mem_ctrl.dram.avgWrBW                 9.566060                       # Average DRAM write bandwidth in MiBytes/s ((Byte/Second))
system.mem_ctrl.dram.peakBW                  12800.00                       # Theoretical peak bandwidth in MiByte/s ((Byte/Second))
system.mem_ctrl.dram.busUtil                     0.24                       # Data bus utilization in percentage (Ratio)
system.mem_ctrl.dram.busUtilRead                 0.17                       # Data bus utilization in percentage for reads (Ratio)
system.mem_ctrl.dram.busUtilWrite                0.07                       # Data bus utilization in percentage for writes (Ratio)
system.mem_ctrl.dram.pageHitRate                66.57                       # Row buffer hit rate, read and write combined (Ratio)
system.mem_ctrl.dram.power_state.pwrStateResidencyTicks::UNDEFINED 380023537000                       # Cumulative time (in ticks) in various power states (Tick)
system.mem_ctrl.dram.rank0.actEnergy        220197600                       # Energy for activate commands per rank (pJ) (Joule)
system.mem_ctrl.dram.rank0.preEnergy        117037800                       # Energy for precharge commands per rank (pJ) (Joule)
system.mem_ctrl.dram.rank0.readEnergy       453482820                       # Energy for read commands per rank (pJ) (Joule)
system.mem_ctrl.dram.rank0.writeEnergy      149286780                       # Energy for write commands per rank (pJ) (Joule)
system.mem_ctrl.dram.rank0.refreshEnergy 29998734480.000004                       # Energy for refresh commands per rank (pJ) (Joule)
system.mem_ctrl.dram.rank0.actBackEnergy  67386786240                       # Energy for active background per rank (pJ) (Joule)
system.mem_ctrl.dram.rank0.preBackEnergy  89182357920                       # Energy for precharge background per rank (pJ) (Joule)
system.mem_ctrl.dram.rank0.actPowerDownEnergy            0                       # Energy for active power-down per rank (pJ) (Joule)
system.mem_ctrl.dram.rank0.prePowerDownEnergy            0                       # Energy for precharge power-down per rank (pJ) (Joule)
system.mem_ctrl.dram.rank0.selfRefreshEnergy            0                       # Energy for self refresh per rank (pJ) (Joule)
system.mem_ctrl.dram.rank0.totalEnergy   187507883640                       # Total energy per rank (pJ) (Joule)
system.mem_ctrl.dram.rank0.averagePower    493.411237                       # Core power per rank (mW) (Watt)
system.mem_ctrl.dram.rank0.totalIdleTime            0                       # Total Idle time Per DRAM Rank (Tick)
system.mem_ctrl.dram.rank0.pwrStateTime::IDLE 231212296000                       # Time in different power states (Tick)
system.mem_ctrl.dram.rank0.pwrStateTime::REF  12689579500                       # Time in different power states (Tick)
system.mem_ctrl.dram.rank0.pwrStateTime::SREF            0                       # Time in different power states (Tick)
system.mem_ctrl.dram.rank0.pwrStateTime::PRE_PDN            0                       # Time in different power states (Tick)
system.mem_ctrl.dram.rank0.pwrStateTime::ACT 136121661500                       # Time in different power states (Tick)
system.mem_ctrl.dram.rank0.pwrStateTime::ACT_PDN            0                       # Time in different power states (Tick)
system.mem_ctrl.dram.rank1.actEnergy        217705740                       # Energy for activate commands per rank (pJ) (Joule)
system.mem_ctrl.dram.rank1.preEnergy        115713345                       # Energy for precharge commands per rank (pJ) (Joule)
system.mem_ctrl.dram.rank1.readEnergy       451012380                       # Energy for read commands per rank (pJ) (Joule)
system.mem_ctrl.dram.rank1.writeEnergy      147219660                       # Energy for write commands per rank (pJ) (Joule)
system.mem_ctrl.dram.rank1.refreshEnergy 29998734480.000004                       # Energy for refresh commands per rank (pJ) (Joule)
system.mem_ctrl.dram.rank1.actBackEnergy  66886250430                       # Energy for active background per rank (pJ) (Joule)
system.mem_ctrl.dram.rank1.preBackEnergy  89603861760                       # Energy for precharge background per rank (pJ) (Joule)
system.mem_ctrl.dram.rank1.actPowerDownEnergy            0                       # Energy for active power-down per rank (pJ) (Joule)
system.mem_ctrl.dram.rank1.prePowerDownEnergy            0                       # Energy for precharge power-down per rank (pJ) (Joule)
system.mem_ctrl.dram.rank1.selfRefreshEnergy            0                       # Energy for self refresh per rank (pJ) (Joule)
system.mem_ctrl.dram.rank1.totalEnergy   187420497795                       # Total energy per rank (pJ) (Joule)
system.mem_ctrl.dram.rank1.averagePower    493.181289                       # Core power per rank (mW) (Watt)
system.mem_ctrl.dram.rank1.totalIdleTime            0                       # Total Idle time Per DRAM Rank (Tick)
system.mem_ctrl.dram.rank1.pwrStateTime::IDLE 232313316250                       # Time in different power states (Tick)
system.mem_ctrl.dram.rank1.pwrStateTime::REF  12689579500                       # Time in different power states (Tick)
system.mem_ctrl.dram.rank1.pwrStateTime::SREF            0                       # Time in different power states (Tick)
system.mem_ctrl.dram.rank1.pwrStateTime::PRE_PDN            0                       # Time in different power states (Tick)
system.mem_ctrl.dram.rank1.pwrStateTime::ACT 135020641250                       # Time in different power states (Tick)
system.mem_ctrl.dram.rank1.pwrStateTime::ACT_PDN            0                       # Time in different power states (Tick)
system.mem_ctrl.power_state.pwrStateResidencyTicks::UNDEFINED 380023537000                       # Cumulative time (in ticks) in various power states (Tick)
system.membus.transDist::ReadResp               55181                       # Transaction distribution (Count)
system.membus.transDist::WritebackDirty         56831                       # Transaction distribution (Count)
system.membus.transDist::CleanEvict              3998                       # Transaction distribution (Count)
system.membus.transDist::ReadExReq              71547                       # Transaction distribution (Count)
system.membus.transDist::ReadExResp             71547                       # Transaction distribution (Count)
system.membus.transDist::ReadSharedReq          55181                       # Transaction distribution (Count)
system.membus.pktCount_system.l3cache.mem_side_port::system.mem_ctrl.port       314285                       # Packet count per connected requestor and responder (Count)
system.membus.pktCount::total                  314285                       # Packet count per connected requestor and responder (Count)
system.membus.pktSize_system.l3cache.mem_side_port::system.mem_ctrl.port     11747776                       # Cumulative packet size per connected requestor and responder (Byte)
system.membus.pktSize::total                 11747776                       # Cumulative packet size per connected requestor and responder (Byte)
system.membus.snoops                                0                       # Total snoops (Count)
system.membus.snoopTraffic                          0                       # Total snoop traffic (Byte)
system.membus.snoopFanout::samples             126728                       # Request fanout histogram (Count)
system.membus.snoopFanout::mean                     0                       # Request fanout histogram (Count)
system.membus.snoopFanout::stdev                    0                       # Request fanout histogram (Count)
system.membus.snoopFanout::underflows               0      0.00%      0.00% # Request fanout histogram (Count)
system.membus.snoopFanout::0                   126728    100.00%    100.00% # Request fanout histogram (Count)
system.membus.snoopFanout::1                        0      0.00%    100.00% # Request fanout histogram (Count)
system.membus.snoopFanout::overflows                0      0.00%    100.00% # Request fanout histogram (Count)
system.membus.snoopFanout::min_value                0                       # Request fanout histogram (Count)
system.membus.snoopFanout::max_value                0                       # Request fanout histogram (Count)
system.membus.snoopFanout::total               126728                       # Request fanout histogram (Count)
system.membus.power_state.pwrStateResidencyTicks::UNDEFINED 380023537000                       # Cumulative time (in ticks) in various power states (Tick)
system.membus.reqLayer0.occupancy           414881000                       # Layer occupancy (ticks) (Tick)
system.membus.reqLayer0.utilization               0.0                       # Layer utilization (Ratio)
system.membus.respLayer0.occupancy          678541500                       # Layer occupancy (ticks) (Tick)
system.membus.respLayer0.utilization              0.0                       # Layer utilization (Ratio)
system.membus.snoop_filter.totRequests         187557                       # Total number of requests made to the snoop filter. (Count)
system.membus.snoop_filter.hitSingleRequests        60829                       # Number of requests hitting in the snoop filter with a single holder of the requested data. (Count)
system.membus.snoop_filter.hitMultiRequests            0                       # Number of requests hitting in the snoop filter with multiple (>1) holders of the requested data. (Count)
system.membus.snoop_filter.totSnoops                0                       # Total number of snoops made to the snoop filter. (Count)
system.membus.snoop_filter.hitSingleSnoops            0                       # Number of snoops hitting in the snoop filter with a single holder of the requested data. (Count)
system.membus.snoop_filter.hitMultiSnoops            0                       # Number of snoops hitting in the snoop filter with multiple (>1) holders of the requested data. (Count)
system.workload.inst.arm                            0                       # number of arm instructions executed (Count)
system.workload.inst.quiesce                        0                       # number of quiesce instructions executed (Count)

---------- End Simulation Statistics   ----------
