
---------- Begin Simulation Statistics ----------
simSeconds                                   0.758753                       # Number of seconds simulated (Second)
simTicks                                 758753383000                       # Number of ticks simulated (Tick)
finalTick                                758753383000                       # Number of ticks from beginning of simulation (restored from checkpoints and never reset) (Tick)
simFreq                                  1000000000000                       # The number of ticks per simulated second ((Tick/Second))
hostSeconds                                    154.00                       # Real time elapsed on the host (Second)
hostTickRate                               4927070021                       # The number of ticks simulated per host second (ticks/s) ((Tick/Second))
hostMemory                                    8592744                       # Number of bytes of host memory used (Byte)
simInsts                                    239565304                       # Number of instructions simulated (Count)
simOps                                      239565304                       # Number of ops (including micro ops) simulated (Count)
hostInstRate                                  1555650                       # Simulator instruction rate (inst/s) ((Count/Second))
hostOpRate                                    1555650                       # Simulator op (including micro ops) rate (op/s) ((Count/Second))
system.clk_domain.clock                          1000                       # Clock period in ticks (Tick)
system.clk_domain.voltage_domain.voltage            1                       # Voltage in Volts (Volt)
system.cpu.numCycles                        758753383                       # Number of cpu cycles simulated (Cycle)
system.cpu.numWorkItemsStarted                      0                       # Number of work items this cpu started (Count)
system.cpu.numWorkItemsCompleted                    0                       # Number of work items this cpu completed (Count)
system.cpu.dcache.demandHits::cpu.data       87358493                       # number of demand (read+write) hits (Count)
system.cpu.dcache.demandHits::total          87358493                       # number of demand (read+write) hits (Count)
system.cpu.dcache.overallHits::cpu.data      87358493                       # number of overall hits (Count)
system.cpu.dcache.overallHits::total         87358493                       # number of overall hits (Count)
system.cpu.dcache.demandMisses::cpu.data       543531                       # number of demand (read+write) misses (Count)
system.cpu.dcache.demandMisses::total          543531                       # number of demand (read+write) misses (Count)
system.cpu.dcache.overallMisses::cpu.data       543531                       # number of overall misses (Count)
system.cpu.dcache.overallMisses::total         543531                       # number of overall misses (Count)
system.cpu.dcache.demandMissLatency::cpu.data  47154554000                       # number of demand (read+write) miss ticks (Tick)
system.cpu.dcache.demandMissLatency::total  47154554000                       # number of demand (read+write) miss ticks (Tick)
system.cpu.dcache.overallMissLatency::cpu.data  47154554000                       # number of overall miss ticks (Tick)
system.cpu.dcache.overallMissLatency::total  47154554000                       # number of overall miss ticks (Tick)
system.cpu.dcache.demandAccesses::cpu.data     87902024                       # number of demand (read+write) accesses (Count)
system.cpu.dcache.demandAccesses::total      87902024                       # number of demand (read+write) accesses (Count)
system.cpu.dcache.overallAccesses::cpu.data     87902024                       # number of overall (read+write) accesses (Count)
system.cpu.dcache.overallAccesses::total     87902024                       # number of overall (read+write) accesses (Count)
system.cpu.dcache.demandMissRate::cpu.data     0.006183                       # miss rate for demand accesses (Ratio)
system.cpu.dcache.demandMissRate::total      0.006183                       # miss rate for demand accesses (Ratio)
system.cpu.dcache.overallMissRate::cpu.data     0.006183                       # miss rate for overall accesses (Ratio)
system.cpu.dcache.overallMissRate::total     0.006183                       # miss rate for overall accesses (Ratio)
system.cpu.dcache.demandAvgMissLatency::cpu.data 86755.960562                       # average overall miss latency ((Cycle/Count))
system.cpu.dcache.demandAvgMissLatency::total 86755.960562                       # average overall miss latency ((Cycle/Count))
system.cpu.dcache.overallAvgMissLatency::cpu.data 86755.960562                       # average overall miss latency ((Cycle/Count))
system.cpu.dcache.overallAvgMissLatency::total 86755.960562                       # average overall miss latency ((Cycle/Count))
system.cpu.dcache.blockedCycles::no_mshrs            0                       # number of cycles access was blocked (Cycle)
system.cpu.dcache.blockedCycles::no_targets            0                       # number of cycles access was blocked (Cycle)
system.cpu.dcache.blockedCauses::no_mshrs            0                       # number of times access was blocked (Count)
system.cpu.dcache.blockedCauses::no_targets            0                       # number of times access was blocked (Count)
system.cpu.dcache.avgBlocked::no_mshrs            nan                       # average number of cycles each access was blocked ((Cycle/Count))
system.cpu.dcache.avgBlocked::no_targets          nan                       # average number of cycles each access was blocked ((Cycle/Count))
system.cpu.dcache.writebacks::writebacks       341283                       # number of writebacks (Count)
system.cpu.dcache.writebacks::total            341283                       # number of writebacks (Count)
system.cpu.dcache.demandMshrMisses::cpu.data       543531                       # number of demand (read+write) MSHR misses (Count)
system.cpu.dcache.demandMshrMisses::total       543531                       # number of demand (read+write) MSHR misses (Count)
system.cpu.dcache.overallMshrMisses::cpu.data       543531                       # number of overall MSHR misses (Count)
system.cpu.dcache.overallMshrMisses::total       543531                       # number of overall MSHR misses (Count)
system.cpu.dcache.demandMshrMissLatency::cpu.data  46067492000                       # number of demand (read+write) MSHR miss ticks (Tick)
system.cpu.dcache.demandMshrMissLatency::total  46067492000                       # number of demand (read+write) MSHR miss ticks (Tick)
system.cpu.dcache.overallMshrMissLatency::cpu.data  46067492000                       # number of overall MSHR miss ticks (Tick)
system.cpu.dcache.overallMshrMissLatency::total  46067492000                       # number of overall MSHR miss ticks (Tick)
system.cpu.dcache.demandMshrMissRate::cpu.data     0.006183                       # mshr miss ratio for demand accesses (Ratio)
system.cpu.dcache.demandMshrMissRate::total     0.006183                       # mshr miss ratio for demand accesses (Ratio)
system.cpu.dcache.overallMshrMissRate::cpu.data     0.006183                       # mshr miss ratio for overall accesses (Ratio)
system.cpu.dcache.overallMshrMissRate::total     0.006183                       # mshr miss ratio for overall accesses (Ratio)
system.cpu.dcache.demandAvgMshrMissLatency::cpu.data 84755.960562                       # average overall mshr miss latency ((Cycle/Count))
system.cpu.dcache.demandAvgMshrMissLatency::total 84755.960562                       # average overall mshr miss latency ((Cycle/Count))
system.cpu.dcache.overallAvgMshrMissLatency::cpu.data 84755.960562                       # average overall mshr miss latency ((Cycle/Count))
system.cpu.dcache.overallAvgMshrMissLatency::total 84755.960562                       # average overall mshr miss latency ((Cycle/Count))
system.cpu.dcache.replacements                 528093                       # number of replacements (Count)
system.cpu.dcache.ReadReq.hits::cpu.data     51208724                       # number of ReadReq hits (Count)
system.cpu.dcache.ReadReq.hits::total        51208724                       # number of ReadReq hits (Count)
system.cpu.dcache.ReadReq.misses::cpu.data       294540                       # number of ReadReq misses (Count)
system.cpu.dcache.ReadReq.misses::total        294540                       # number of ReadReq misses (Count)
system.cpu.dcache.ReadReq.missLatency::cpu.data  23689091000                       # number of ReadReq miss ticks (Tick)
system.cpu.dcache.ReadReq.missLatency::total  23689091000                       # number of ReadReq miss ticks (Tick)
system.cpu.dcache.ReadReq.accesses::cpu.data     51503264                       # number of ReadReq accesses(hits+misses) (Count)
system.cpu.dcache.ReadReq.accesses::total     51503264                       # number of ReadReq accesses(hits+misses) (Count)
system.cpu.dcache.ReadReq.missRate::cpu.data     0.005719                       # miss rate for ReadReq accesses (Ratio)
system.cpu.dcache.ReadReq.missRate::total     0.005719                       # miss rate for ReadReq accesses (Ratio)
system.cpu.dcache.ReadReq.avgMissLatency::cpu.data 80427.415631                       # average ReadReq miss latency ((Tick/Count))
system.cpu.dcache.ReadReq.avgMissLatency::total 80427.415631                       # average ReadReq miss latency ((Tick/Count))
system.cpu.dcache.ReadReq.mshrMisses::cpu.data       294540                       # number of ReadReq MSHR misses (Count)
system.cpu.dcache.ReadReq.mshrMisses::total       294540                       # number of ReadReq MSHR misses (Count)
system.cpu.dcache.ReadReq.mshrMissLatency::cpu.data  23100011000                       # number of ReadReq MSHR miss ticks (Tick)
system.cpu.dcache.ReadReq.mshrMissLatency::total  23100011000                       # number of ReadReq MSHR miss ticks (Tick)
system.cpu.dcache.ReadReq.mshrMissRate::cpu.data     0.005719                       # mshr miss rate for ReadReq accesses (Ratio)
system.cpu.dcache.ReadReq.mshrMissRate::total     0.005719                       # mshr miss rate for ReadReq accesses (Ratio)
system.cpu.dcache.ReadReq.avgMshrMissLatency::cpu.data 78427.415631                       # average ReadReq mshr miss latency ((Tick/Count))
system.cpu.dcache.ReadReq.avgMshrMissLatency::total 78427.415631                       # average ReadReq mshr miss latency ((Tick/Count))
system.cpu.dcache.WriteReq.hits::cpu.data     36149769                       # number of WriteReq hits (Count)
system.cpu.dcache.WriteReq.hits::total       36149769                       # number of WriteReq hits (Count)
system.cpu.dcache.WriteReq.misses::cpu.data       248991                       # number of WriteReq misses (Count)
system.cpu.dcache.WriteReq.misses::total       248991                       # number of WriteReq misses (Count)
system.cpu.dcache.WriteReq.missLatency::cpu.data  23465463000                       # number of WriteReq miss ticks (Tick)
system.cpu.dcache.WriteReq.missLatency::total  23465463000                       # number of WriteReq miss ticks (Tick)
system.cpu.dcache.WriteReq.accesses::cpu.data     36398760                       # number of WriteReq accesses(hits+misses) (Count)
system.cpu.dcache.WriteReq.accesses::total     36398760                       # number of WriteReq accesses(hits+misses) (Count)
system.cpu.dcache.WriteReq.missRate::cpu.data     0.006841                       # miss rate for WriteReq accesses (Ratio)
system.cpu.dcache.WriteReq.missRate::total     0.006841                       # miss rate for WriteReq accesses (Ratio)
system.cpu.dcache.WriteReq.avgMissLatency::cpu.data 94242.213574                       # average WriteReq miss latency ((Tick/Count))
system.cpu.dcache.WriteReq.avgMissLatency::total 94242.213574                       # average WriteReq miss latency ((Tick/Count))
system.cpu.dcache.WriteReq.mshrMisses::cpu.data       248991                       # number of WriteReq MSHR misses (Count)
system.cpu.dcache.WriteReq.mshrMisses::total       248991                       # number of WriteReq MSHR misses (Count)
system.cpu.dcache.WriteReq.mshrMissLatency::cpu.data  22967481000                       # number of WriteReq MSHR miss ticks (Tick)
system.cpu.dcache.WriteReq.mshrMissLatency::total  22967481000                       # number of WriteReq MSHR miss ticks (Tick)
system.cpu.dcache.WriteReq.mshrMissRate::cpu.data     0.006841                       # mshr miss rate for WriteReq accesses (Ratio)
system.cpu.dcache.WriteReq.mshrMissRate::total     0.006841                       # mshr miss rate for WriteReq accesses (Ratio)
system.cpu.dcache.WriteReq.avgMshrMissLatency::cpu.data 92242.213574                       # average WriteReq mshr miss latency ((Tick/Count))
system.cpu.dcache.WriteReq.avgMshrMissLatency::total 92242.213574                       # average WriteReq mshr miss latency ((Tick/Count))
system.cpu.dcache.power_state.pwrStateResidencyTicks::UNDEFINED 758753383000                       # Cumulative time (in ticks) in various power states (Tick)
system.cpu.dcache.tags.tagsInUse           511.894020                       # Average ticks per tags in use ((Tick/Count))
system.cpu.dcache.tags.totalRefs             87902024                       # Total number of references to valid blocks. (Count)
system.cpu.dcache.tags.sampledRefs             528605                       # Sample count of references to valid blocks. (Count)
system.cpu.dcache.tags.avgRefs             166.290565                       # Average number of references to valid blocks. ((Count/Count))
system.cpu.dcache.tags.warmupTick              306000                       # The tick when the warmup percentage was hit. (Tick)
system.cpu.dcache.tags.occupancies::cpu.data   511.894020                       # Average occupied blocks per tick, per requestor ((Count/Tick))
system.cpu.dcache.tags.avgOccs::cpu.data     0.999793                       # Average percentage of cache occupancy ((Ratio/Tick))
system.cpu.dcache.tags.avgOccs::total        0.999793                       # Average percentage of cache occupancy ((Ratio/Tick))
system.cpu.dcache.tags.occupanciesTaskId::1024          512                       # Occupied blocks per task id (Count)
system.cpu.dcache.tags.ageTaskId_1024::0           21                       # Occupied blocks per task id, per block age (Count)
system.cpu.dcache.tags.ageTaskId_1024::1           41                       # Occupied blocks per task id, per block age (Count)
system.cpu.dcache.tags.ageTaskId_1024::2          227                       # Occupied blocks per task id, per block age (Count)
system.cpu.dcache.tags.ageTaskId_1024::3          223                       # Occupied blocks per task id, per block age (Count)
system.cpu.dcache.tags.ratioOccsTaskId::1024            1                       # Ratio of occupied blocks and all blocks, per task id (Ratio)
system.cpu.dcache.tags.tagAccesses           88430629                       # Number of tag accesses (Count)
system.cpu.dcache.tags.dataAccesses          88430629                       # Number of data accesses (Count)
system.cpu.dcache.tags.power_state.pwrStateResidencyTicks::UNDEFINED 758753383000                       # Cumulative time (in ticks) in various power states (Tick)
system.cpu.exec_context.thread_0.numInsts    239565304                       # Number of instructions committed (Count)
system.cpu.exec_context.thread_0.numOps     239565304                       # Number of ops (including micro ops) committed (Count)
system.cpu.exec_context.thread_0.numIntAluAccesses    236205221                       # Number of integer alu accesses (Count)
system.cpu.exec_context.thread_0.numFpAluAccesses           18                       # Number of float alu accesses (Count)
system.cpu.exec_context.thread_0.numVecAluAccesses            0                       # Number of vector alu accesses (Count)
system.cpu.exec_context.thread_0.numCallsReturns      4941601                       # Number of times a function call or return occured (Count)
system.cpu.exec_context.thread_0.numCondCtrlInsts     30174056                       # Number of instructions that are conditional controls (Count)
system.cpu.exec_context.thread_0.numIntInsts    236205221                       # Number of integer instructions (Count)
system.cpu.exec_context.thread_0.numFpInsts           18                       # Number of float instructions (Count)
system.cpu.exec_context.thread_0.numVecInsts            0                       # Number of vector instructions (Count)
system.cpu.exec_context.thread_0.numIntRegReads    428353319                       # Number of times the integer registers were read (Count)
system.cpu.exec_context.thread_0.numIntRegWrites    210166012                       # Number of times the integer registers were written (Count)
system.cpu.exec_context.thread_0.numFpRegReads           18                       # Number of times the floating registers were read (Count)
system.cpu.exec_context.thread_0.numFpRegWrites            0                       # Number of times the floating registers were written (Count)
system.cpu.exec_context.thread_0.numVecRegReads            0                       # Number of times the vector registers were read (Count)
system.cpu.exec_context.thread_0.numVecRegWrites            0                       # Number of times the vector registers were written (Count)
system.cpu.exec_context.thread_0.numVecPredRegReads            0                       # Number of times the predicate registers were read (Count)
system.cpu.exec_context.thread_0.numVecPredRegWrites            0                       # Number of times the predicate registers were written (Count)
system.cpu.exec_context.thread_0.numMiscRegReads            0                       # Number of times the Misc registers were read (Count)
system.cpu.exec_context.thread_0.numMiscRegWrites            0                       # Number of times the Misc registers were written (Count)
system.cpu.exec_context.thread_0.numMemRefs     87882842                       # Number of memory refs (Count)
system.cpu.exec_context.thread_0.numLoadInsts     51503263                       # Number of load instructions (Count)
system.cpu.exec_context.thread_0.numStoreInsts     36379579                       # Number of store instructions (Count)
system.cpu.exec_context.thread_0.numIdleCycles     0.001000                       # Number of idle cycles (Cycle)
system.cpu.exec_context.thread_0.numBusyCycles 758753382.999000                       # Number of busy cycles (Cycle)
system.cpu.exec_context.thread_0.notIdleFraction     1.000000                       # Percentage of non-idle cycles (Ratio)
system.cpu.exec_context.thread_0.idleFraction     0.000000                       # Percentage of idle cycles (Ratio)
system.cpu.exec_context.thread_0.numBranches     36297466                       # Number of branches fetched (Count)
system.cpu.exec_context.thread_0.statExecutedInstType::No_OpClass            0      0.00%      0.00% # Class of executed instruction. (Count)
system.cpu.exec_context.thread_0.statExecutedInstType::IntAlu    151685089     63.32%     63.32% # Class of executed instruction. (Count)
system.cpu.exec_context.thread_0.statExecutedInstType::IntMult            0      0.00%     63.32% # Class of executed instruction. (Count)
system.cpu.exec_context.thread_0.statExecutedInstType::IntDiv            0      0.00%     63.32% # Class of executed instruction. (Count)
system.cpu.exec_context.thread_0.statExecutedInstType::FloatAdd            0      0.00%     63.32% # Class of executed instruction. (Count)
system.cpu.exec_context.thread_0.statExecutedInstType::FloatCmp            0      0.00%     63.32% # Class of executed instruction. (Count)
system.cpu.exec_context.thread_0.statExecutedInstType::FloatCvt            0      0.00%     63.32% # Class of executed instruction. (Count)
system.cpu.exec_context.thread_0.statExecutedInstType::FloatMult            0      0.00%     63.32% # Class of executed instruction. (Count)
system.cpu.exec_context.thread_0.statExecutedInstType::FloatMultAcc            0      0.00%     63.32% # Class of executed instruction. (Count)
system.cpu.exec_context.thread_0.statExecutedInstType::FloatDiv            0      0.00%     63.32% # Class of executed instruction. (Count)
system.cpu.exec_context.thread_0.statExecutedInstType::FloatMisc            0      0.00%     63.32% # Class of executed instruction. (Count)
system.cpu.exec_context.thread_0.statExecutedInstType::FloatSqrt            0      0.00%     63.32% # Class of executed instruction. (Count)
system.cpu.exec_context.thread_0.statExecutedInstType::SimdAdd            0      0.00%     63.32% # Class of executed instruction. (Count)
system.cpu.exec_context.thread_0.statExecutedInstType::SimdAddAcc            0      0.00%     63.32% # Class of executed instruction. (Count)
system.cpu.exec_context.thread_0.statExecutedInstType::SimdAlu            0      0.00%     63.32% # Class of executed instruction. (Count)
system.cpu.exec_context.thread_0.statExecutedInstType::SimdCmp            0      0.00%     63.32% # Class of executed instruction. (Count)
system.cpu.exec_context.thread_0.statExecutedInstType::SimdCvt            0      0.00%     63.32% # Class of executed instruction. (Count)
system.cpu.exec_context.thread_0.statExecutedInstType::SimdMisc            0      0.00%     63.32% # Class of executed instruction. (Count)
system.cpu.exec_context.thread_0.statExecutedInstType::SimdMult            0      0.00%     63.32% # Class of executed instruction. (Count)
system.cpu.exec_context.thread_0.statExecutedInstType::SimdMultAcc            0      0.00%     63.32% # Class of executed instruction. (Count)
system.cpu.exec_context.thread_0.statExecutedInstType::SimdShift            0      0.00%     63.32% # Class of executed instruction. (Count)
system.cpu.exec_context.thread_0.statExecutedInstType::SimdShiftAcc            0      0.00%     63.32% # Class of executed instruction. (Count)
system.cpu.exec_context.thread_0.statExecutedInstType::SimdDiv            0      0.00%     63.32% # Class of executed instruction. (Count)
system.cpu.exec_context.thread_0.statExecutedInstType::SimdSqrt            0      0.00%     63.32% # Class of executed instruction. (Count)
system.cpu.exec_context.thread_0.statExecutedInstType::SimdFloatAdd            0      0.00%     63.32% # Class of executed instruction. (Count)
system.cpu.exec_context.thread_0.statExecutedInstType::SimdFloatAlu            0      0.00%     63.32% # Class of executed instruction. (Count)
system.cpu.exec_context.thread_0.statExecutedInstType::SimdFloatCmp            0      0.00%     63.32% # Class of executed instruction. (Count)
system.cpu.exec_context.thread_0.statExecutedInstType::SimdFloatCvt            0      0.00%     63.32% # Class of executed instruction. (Count)
system.cpu.exec_context.thread_0.statExecutedInstType::SimdFloatDiv            0      0.00%     63.32% # Class of executed instruction. (Count)
system.cpu.exec_context.thread_0.statExecutedInstType::SimdFloatMisc            0      0.00%     63.32% # Class of executed instruction. (Count)
system.cpu.exec_context.thread_0.statExecutedInstType::SimdFloatMult            0      0.00%     63.32% # Class of executed instruction. (Count)
system.cpu.exec_context.thread_0.statExecutedInstType::SimdFloatMultAcc            0      0.00%     63.32% # Class of executed instruction. (Count)
system.cpu.exec_context.thread_0.statExecutedInstType::SimdFloatSqrt            0      0.00%     63.32% # Class of executed instruction. (Count)
system.cpu.exec_context.thread_0.statExecutedInstType::SimdReduceAdd            0      0.00%     63.32% # Class of executed instruction. (Count)
system.cpu.exec_context.thread_0.statExecutedInstType::SimdReduceAlu            0      0.00%     63.32% # Class of executed instruction. (Count)
system.cpu.exec_context.thread_0.statExecutedInstType::SimdReduceCmp            0      0.00%     63.32% # Class of executed instruction. (Count)
system.cpu.exec_context.thread_0.statExecutedInstType::SimdFloatReduceAdd            0      0.00%     63.32% # Class of executed instruction. (Count)
system.cpu.exec_context.thread_0.statExecutedInstType::SimdFloatReduceCmp            0      0.00%     63.32% # Class of executed instruction. (Count)
system.cpu.exec_context.thread_0.statExecutedInstType::SimdAes            0      0.00%     63.32% # Class of executed instruction. (Count)
system.cpu.exec_context.thread_0.statExecutedInstType::SimdAesMix            0      0.00%     63.32% # Class of executed instruction. (Count)
system.cpu.exec_context.thread_0.statExecutedInstType::SimdSha1Hash            0      0.00%     63.32% # Class of executed instruction. (Count)
system.cpu.exec_context.thread_0.statExecutedInstType::SimdSha1Hash2            0      0.00%     63.32% # Class of executed instruction. (Count)
system.cpu.exec_context.thread_0.statExecutedInstType::SimdSha256Hash            0      0.00%     63.32% # Class of executed instruction. (Count)
system.cpu.exec_context.thread_0.statExecutedInstType::SimdSha256Hash2            0      0.00%     63.32% # Class of executed instruction. (Count)
system.cpu.exec_context.thread_0.statExecutedInstType::SimdShaSigma2            0      0.00%     63.32% # Class of executed instruction. (Count)
system.cpu.exec_context.thread_0.statExecutedInstType::SimdShaSigma3            0      0.00%     63.32% # Class of executed instruction. (Count)
system.cpu.exec_context.thread_0.statExecutedInstType::SimdPredAlu            0      0.00%     63.32% # Class of executed instruction. (Count)
system.cpu.exec_context.thread_0.statExecutedInstType::MemRead     51503263     21.50%     84.81% # Class of executed instruction. (Count)
system.cpu.exec_context.thread_0.statExecutedInstType::MemWrite     36379561     15.19%    100.00% # Class of executed instruction. (Count)
system.cpu.exec_context.thread_0.statExecutedInstType::FloatMemRead            0      0.00%    100.00% # Class of executed instruction. (Count)
system.cpu.exec_context.thread_0.statExecutedInstType::FloatMemWrite           18      0.00%    100.00% # Class of executed instruction. (Count)
system.cpu.exec_context.thread_0.statExecutedInstType::IprAccess            0      0.00%    100.00% # Class of executed instruction. (Count)
system.cpu.exec_context.thread_0.statExecutedInstType::InstPrefetch            0      0.00%    100.00% # Class of executed instruction. (Count)
system.cpu.exec_context.thread_0.statExecutedInstType::total    239567931                       # Class of executed instruction. (Count)
system.cpu.icache.demandHits::cpu.inst      237162709                       # number of demand (read+write) hits (Count)
system.cpu.icache.demandHits::total         237162709                       # number of demand (read+write) hits (Count)
system.cpu.icache.overallHits::cpu.inst     237162709                       # number of overall hits (Count)
system.cpu.icache.overallHits::total        237162709                       # number of overall hits (Count)
system.cpu.icache.demandMisses::cpu.inst      2405222                       # number of demand (read+write) misses (Count)
system.cpu.icache.demandMisses::total         2405222                       # number of demand (read+write) misses (Count)
system.cpu.icache.overallMisses::cpu.inst      2405222                       # number of overall misses (Count)
system.cpu.icache.overallMisses::total        2405222                       # number of overall misses (Count)
system.cpu.icache.demandMissLatency::cpu.inst  62603513000                       # number of demand (read+write) miss ticks (Tick)
system.cpu.icache.demandMissLatency::total  62603513000                       # number of demand (read+write) miss ticks (Tick)
system.cpu.icache.overallMissLatency::cpu.inst  62603513000                       # number of overall miss ticks (Tick)
system.cpu.icache.overallMissLatency::total  62603513000                       # number of overall miss ticks (Tick)
system.cpu.icache.demandAccesses::cpu.inst    239567931                       # number of demand (read+write) accesses (Count)
system.cpu.icache.demandAccesses::total     239567931                       # number of demand (read+write) accesses (Count)
system.cpu.icache.overallAccesses::cpu.inst    239567931                       # number of overall (read+write) accesses (Count)
system.cpu.icache.overallAccesses::total    239567931                       # number of overall (read+write) accesses (Count)
system.cpu.icache.demandMissRate::cpu.inst     0.010040                       # miss rate for demand accesses (Ratio)
system.cpu.icache.demandMissRate::total      0.010040                       # miss rate for demand accesses (Ratio)
system.cpu.icache.overallMissRate::cpu.inst     0.010040                       # miss rate for overall accesses (Ratio)
system.cpu.icache.overallMissRate::total     0.010040                       # miss rate for overall accesses (Ratio)
system.cpu.icache.demandAvgMissLatency::cpu.inst 26028.164136                       # average overall miss latency ((Cycle/Count))
system.cpu.icache.demandAvgMissLatency::total 26028.164136                       # average overall miss latency ((Cycle/Count))
system.cpu.icache.overallAvgMissLatency::cpu.inst 26028.164136                       # average overall miss latency ((Cycle/Count))
system.cpu.icache.overallAvgMissLatency::total 26028.164136                       # average overall miss latency ((Cycle/Count))
system.cpu.icache.blockedCycles::no_mshrs            0                       # number of cycles access was blocked (Cycle)
system.cpu.icache.blockedCycles::no_targets            0                       # number of cycles access was blocked (Cycle)
system.cpu.icache.blockedCauses::no_mshrs            0                       # number of times access was blocked (Count)
system.cpu.icache.blockedCauses::no_targets            0                       # number of times access was blocked (Count)
system.cpu.icache.avgBlocked::no_mshrs            nan                       # average number of cycles each access was blocked ((Cycle/Count))
system.cpu.icache.avgBlocked::no_targets          nan                       # average number of cycles each access was blocked ((Cycle/Count))
system.cpu.icache.demandMshrMisses::cpu.inst      2405222                       # number of demand (read+write) MSHR misses (Count)
system.cpu.icache.demandMshrMisses::total      2405222                       # number of demand (read+write) MSHR misses (Count)
system.cpu.icache.overallMshrMisses::cpu.inst      2405222                       # number of overall MSHR misses (Count)
system.cpu.icache.overallMshrMisses::total      2405222                       # number of overall MSHR misses (Count)
system.cpu.icache.demandMshrMissLatency::cpu.inst  57793069000                       # number of demand (read+write) MSHR miss ticks (Tick)
system.cpu.icache.demandMshrMissLatency::total  57793069000                       # number of demand (read+write) MSHR miss ticks (Tick)
system.cpu.icache.overallMshrMissLatency::cpu.inst  57793069000                       # number of overall MSHR miss ticks (Tick)
system.cpu.icache.overallMshrMissLatency::total  57793069000                       # number of overall MSHR miss ticks (Tick)
system.cpu.icache.demandMshrMissRate::cpu.inst     0.010040                       # mshr miss ratio for demand accesses (Ratio)
system.cpu.icache.demandMshrMissRate::total     0.010040                       # mshr miss ratio for demand accesses (Ratio)
system.cpu.icache.overallMshrMissRate::cpu.inst     0.010040                       # mshr miss ratio for overall accesses (Ratio)
system.cpu.icache.overallMshrMissRate::total     0.010040                       # mshr miss ratio for overall accesses (Ratio)
system.cpu.icache.demandAvgMshrMissLatency::cpu.inst 24028.164136                       # average overall mshr miss latency ((Cycle/Count))
system.cpu.icache.demandAvgMshrMissLatency::total 24028.164136                       # average overall mshr miss latency ((Cycle/Count))
system.cpu.icache.overallAvgMshrMissLatency::cpu.inst 24028.164136                       # average overall mshr miss latency ((Cycle/Count))
system.cpu.icache.overallAvgMshrMissLatency::total 24028.164136                       # average overall mshr miss latency ((Cycle/Count))
system.cpu.icache.replacements                2404991                       # number of replacements (Count)
system.cpu.icache.ReadReq.hits::cpu.inst    237162709                       # number of ReadReq hits (Count)
system.cpu.icache.ReadReq.hits::total       237162709                       # number of ReadReq hits (Count)
system.cpu.icache.ReadReq.misses::cpu.inst      2405222                       # number of ReadReq misses (Count)
system.cpu.icache.ReadReq.misses::total       2405222                       # number of ReadReq misses (Count)
system.cpu.icache.ReadReq.missLatency::cpu.inst  62603513000                       # number of ReadReq miss ticks (Tick)
system.cpu.icache.ReadReq.missLatency::total  62603513000                       # number of ReadReq miss ticks (Tick)
system.cpu.icache.ReadReq.accesses::cpu.inst    239567931                       # number of ReadReq accesses(hits+misses) (Count)
system.cpu.icache.ReadReq.accesses::total    239567931                       # number of ReadReq accesses(hits+misses) (Count)
system.cpu.icache.ReadReq.missRate::cpu.inst     0.010040                       # miss rate for ReadReq accesses (Ratio)
system.cpu.icache.ReadReq.missRate::total     0.010040                       # miss rate for ReadReq accesses (Ratio)
system.cpu.icache.ReadReq.avgMissLatency::cpu.inst 26028.164136                       # average ReadReq miss latency ((Tick/Count))
system.cpu.icache.ReadReq.avgMissLatency::total 26028.164136                       # average ReadReq miss latency ((Tick/Count))
system.cpu.icache.ReadReq.mshrMisses::cpu.inst      2405222                       # number of ReadReq MSHR misses (Count)
system.cpu.icache.ReadReq.mshrMisses::total      2405222                       # number of ReadReq MSHR misses (Count)
system.cpu.icache.ReadReq.mshrMissLatency::cpu.inst  57793069000                       # number of ReadReq MSHR miss ticks (Tick)
system.cpu.icache.ReadReq.mshrMissLatency::total  57793069000                       # number of ReadReq MSHR miss ticks (Tick)
system.cpu.icache.ReadReq.mshrMissRate::cpu.inst     0.010040                       # mshr miss rate for ReadReq accesses (Ratio)
system.cpu.icache.ReadReq.mshrMissRate::total     0.010040                       # mshr miss rate for ReadReq accesses (Ratio)
system.cpu.icache.ReadReq.avgMshrMissLatency::cpu.inst 24028.164136                       # average ReadReq mshr miss latency ((Tick/Count))
system.cpu.icache.ReadReq.avgMshrMissLatency::total 24028.164136                       # average ReadReq mshr miss latency ((Tick/Count))
system.cpu.icache.power_state.pwrStateResidencyTicks::UNDEFINED 758753383000                       # Cumulative time (in ticks) in various power states (Tick)
system.cpu.icache.tags.tagsInUse           217.099749                       # Average ticks per tags in use ((Tick/Count))
system.cpu.icache.tags.totalRefs            239567931                       # Total number of references to valid blocks. (Count)
system.cpu.icache.tags.sampledRefs            2405222                       # Sample count of references to valid blocks. (Count)
system.cpu.icache.tags.avgRefs              99.603251                       # Average number of references to valid blocks. ((Count/Count))
system.cpu.icache.tags.warmupTick              149000                       # The tick when the warmup percentage was hit. (Tick)
system.cpu.icache.tags.occupancies::cpu.inst   217.099749                       # Average occupied blocks per tick, per requestor ((Count/Tick))
system.cpu.icache.tags.avgOccs::cpu.inst     0.848046                       # Average percentage of cache occupancy ((Ratio/Tick))
system.cpu.icache.tags.avgOccs::total        0.848046                       # Average percentage of cache occupancy ((Ratio/Tick))
system.cpu.icache.tags.occupanciesTaskId::1024          231                       # Occupied blocks per task id (Count)
system.cpu.icache.tags.ageTaskId_1024::0           42                       # Occupied blocks per task id, per block age (Count)
system.cpu.icache.tags.ageTaskId_1024::1           38                       # Occupied blocks per task id, per block age (Count)
system.cpu.icache.tags.ageTaskId_1024::2            1                       # Occupied blocks per task id, per block age (Count)
system.cpu.icache.tags.ageTaskId_1024::4          150                       # Occupied blocks per task id, per block age (Count)
system.cpu.icache.tags.ratioOccsTaskId::1024     0.902344                       # Ratio of occupied blocks and all blocks, per task id (Ratio)
system.cpu.icache.tags.tagAccesses          241973153                       # Number of tag accesses (Count)
system.cpu.icache.tags.dataAccesses         241973153                       # Number of data accesses (Count)
system.cpu.icache.tags.power_state.pwrStateResidencyTicks::UNDEFINED 758753383000                       # Cumulative time (in ticks) in various power states (Tick)
system.cpu.power_state.pwrStateResidencyTicks::ON 758753383000                       # Cumulative time (in ticks) in various power states (Tick)
system.cpu.thread_0.numInsts                        0                       # Number of Instructions committed (Count)
system.cpu.thread_0.numOps                          0                       # Number of Ops committed (Count)
system.cpu.thread_0.numMemRefs                      0                       # Number of Memory References (Count)
system.cpu.workload.numSyscalls                   392                       # Number of system calls (Count)
system.l2bus.transDist::ReadResp              2699762                       # Transaction distribution (Count)
system.l2bus.transDist::WritebackDirty         541162                       # Transaction distribution (Count)
system.l2bus.transDist::CleanEvict            2685316                       # Transaction distribution (Count)
system.l2bus.transDist::UpgradeReq              14926                       # Transaction distribution (Count)
system.l2bus.transDist::UpgradeResp             14926                       # Transaction distribution (Count)
system.l2bus.transDist::ReadExReq              234065                       # Transaction distribution (Count)
system.l2bus.transDist::ReadExResp             234065                       # Transaction distribution (Count)
system.l2bus.transDist::ReadSharedReq         2699762                       # Transaction distribution (Count)
system.l2bus.pktCount_system.cpu.icache.mem_side_port::system.l2cache.cpu_side_port      7215435                       # Packet count per connected requestor and responder (Count)
system.l2bus.pktCount_system.cpu.dcache.mem_side_port::system.l2cache.cpu_side_port      1615155                       # Packet count per connected requestor and responder (Count)
system.l2bus.pktCount::total                  8830590                       # Packet count per connected requestor and responder (Count)
system.l2bus.pktSize_system.cpu.icache.mem_side_port::system.l2cache.cpu_side_port    153934208                       # Cumulative packet size per connected requestor and responder (Byte)
system.l2bus.pktSize_system.cpu.dcache.mem_side_port::system.l2cache.cpu_side_port     55672832                       # Cumulative packet size per connected requestor and responder (Byte)
system.l2bus.pktSize::total                 209607040                       # Cumulative packet size per connected requestor and responder (Byte)
system.l2bus.snoops                            293394                       # Total snoops (Count)
system.l2bus.snoopTraffic                    12792256                       # Total snoop traffic (Byte)
system.l2bus.snoopFanout::samples             3242147                       # Request fanout histogram (Count)
system.l2bus.snoopFanout::mean               0.000241                       # Request fanout histogram (Count)
system.l2bus.snoopFanout::stdev              0.015519                       # Request fanout histogram (Count)
system.l2bus.snoopFanout::underflows                0      0.00%      0.00% # Request fanout histogram (Count)
system.l2bus.snoopFanout::0                   3241366     99.98%     99.98% # Request fanout histogram (Count)
system.l2bus.snoopFanout::1                       781      0.02%    100.00% # Request fanout histogram (Count)
system.l2bus.snoopFanout::2                         0      0.00%    100.00% # Request fanout histogram (Count)
system.l2bus.snoopFanout::overflows                 0      0.00%    100.00% # Request fanout histogram (Count)
system.l2bus.snoopFanout::min_value                 0                       # Request fanout histogram (Count)
system.l2bus.snoopFanout::max_value                 1                       # Request fanout histogram (Count)
system.l2bus.snoopFanout::total               3242147                       # Request fanout histogram (Count)
system.l2bus.power_state.pwrStateResidencyTicks::UNDEFINED 758753383000                       # Cumulative time (in ticks) in various power states (Tick)
system.l2bus.reqLayer0.occupancy           6564403000                       # Layer occupancy (ticks) (Tick)
system.l2bus.reqLayer0.utilization                0.0                       # Layer utilization (Ratio)
system.l2bus.respLayer0.occupancy          7215666000                       # Layer occupancy (ticks) (Tick)
system.l2bus.respLayer0.utilization               0.0                       # Layer utilization (Ratio)
system.l2bus.respLayer1.occupancy          1600741000                       # Layer occupancy (ticks) (Tick)
system.l2bus.respLayer1.utilization               0.0                       # Layer utilization (Ratio)
system.l2bus.snoop_filter.totRequests         5881837                       # Total number of requests made to the snoop filter. (Count)
system.l2bus.snoop_filter.hitSingleRequests      2948010                       # Number of requests hitting in the snoop filter with a single holder of the requested data. (Count)
system.l2bus.snoop_filter.hitMultiRequests            1                       # Number of requests hitting in the snoop filter with multiple (>1) holders of the requested data. (Count)
system.l2bus.snoop_filter.totSnoops               780                       # Total number of snoops made to the snoop filter. (Count)
system.l2bus.snoop_filter.hitSingleSnoops          780                       # Number of snoops hitting in the snoop filter with a single holder of the requested data. (Count)
system.l2bus.snoop_filter.hitMultiSnoops            0                       # Number of snoops hitting in the snoop filter with multiple (>1) holders of the requested data. (Count)
system.l2cache.demandHits::cpu.inst           2404657                       # number of demand (read+write) hits (Count)
system.l2cache.demandHits::cpu.data            228119                       # number of demand (read+write) hits (Count)
system.l2cache.demandHits::total              2632776                       # number of demand (read+write) hits (Count)
system.l2cache.overallHits::cpu.inst          2404657                       # number of overall hits (Count)
system.l2cache.overallHits::cpu.data           228119                       # number of overall hits (Count)
system.l2cache.overallHits::total             2632776                       # number of overall hits (Count)
system.l2cache.demandMisses::cpu.inst             565                       # number of demand (read+write) misses (Count)
system.l2cache.demandMisses::cpu.data          300486                       # number of demand (read+write) misses (Count)
system.l2cache.demandMisses::total             301051                       # number of demand (read+write) misses (Count)
system.l2cache.overallMisses::cpu.inst            565                       # number of overall misses (Count)
system.l2cache.overallMisses::cpu.data         300486                       # number of overall misses (Count)
system.l2cache.overallMisses::total            301051                       # number of overall misses (Count)
system.l2cache.demandMissLatency::cpu.inst     79238000                       # number of demand (read+write) miss ticks (Tick)
system.l2cache.demandMissLatency::cpu.data  38925776000                       # number of demand (read+write) miss ticks (Tick)
system.l2cache.demandMissLatency::total   39005014000                       # number of demand (read+write) miss ticks (Tick)
system.l2cache.overallMissLatency::cpu.inst     79238000                       # number of overall miss ticks (Tick)
system.l2cache.overallMissLatency::cpu.data  38925776000                       # number of overall miss ticks (Tick)
system.l2cache.overallMissLatency::total  39005014000                       # number of overall miss ticks (Tick)
system.l2cache.demandAccesses::cpu.inst       2405222                       # number of demand (read+write) accesses (Count)
system.l2cache.demandAccesses::cpu.data        528605                       # number of demand (read+write) accesses (Count)
system.l2cache.demandAccesses::total          2933827                       # number of demand (read+write) accesses (Count)
system.l2cache.overallAccesses::cpu.inst      2405222                       # number of overall (read+write) accesses (Count)
system.l2cache.overallAccesses::cpu.data       528605                       # number of overall (read+write) accesses (Count)
system.l2cache.overallAccesses::total         2933827                       # number of overall (read+write) accesses (Count)
system.l2cache.demandMissRate::cpu.inst      0.000235                       # miss rate for demand accesses (Ratio)
system.l2cache.demandMissRate::cpu.data      0.568451                       # miss rate for demand accesses (Ratio)
system.l2cache.demandMissRate::total         0.102614                       # miss rate for demand accesses (Ratio)
system.l2cache.overallMissRate::cpu.inst     0.000235                       # miss rate for overall accesses (Ratio)
system.l2cache.overallMissRate::cpu.data     0.568451                       # miss rate for overall accesses (Ratio)
system.l2cache.overallMissRate::total        0.102614                       # miss rate for overall accesses (Ratio)
system.l2cache.demandAvgMissLatency::cpu.inst 140244.247788                       # average overall miss latency ((Cycle/Count))
system.l2cache.demandAvgMissLatency::cpu.data 129542.727448                       # average overall miss latency ((Cycle/Count))
system.l2cache.demandAvgMissLatency::total 129562.811617                       # average overall miss latency ((Cycle/Count))
system.l2cache.overallAvgMissLatency::cpu.inst 140244.247788                       # average overall miss latency ((Cycle/Count))
system.l2cache.overallAvgMissLatency::cpu.data 129542.727448                       # average overall miss latency ((Cycle/Count))
system.l2cache.overallAvgMissLatency::total 129562.811617                       # average overall miss latency ((Cycle/Count))
system.l2cache.blockedCycles::no_mshrs              0                       # number of cycles access was blocked (Cycle)
system.l2cache.blockedCycles::no_targets            0                       # number of cycles access was blocked (Cycle)
system.l2cache.blockedCauses::no_mshrs              0                       # number of times access was blocked (Count)
system.l2cache.blockedCauses::no_targets            0                       # number of times access was blocked (Count)
system.l2cache.avgBlocked::no_mshrs               nan                       # average number of cycles each access was blocked ((Cycle/Count))
system.l2cache.avgBlocked::no_targets             nan                       # average number of cycles each access was blocked ((Cycle/Count))
system.l2cache.writebacks::writebacks          199879                       # number of writebacks (Count)
system.l2cache.writebacks::total               199879                       # number of writebacks (Count)
system.l2cache.demandMshrMisses::cpu.inst          565                       # number of demand (read+write) MSHR misses (Count)
system.l2cache.demandMshrMisses::cpu.data       300486                       # number of demand (read+write) MSHR misses (Count)
system.l2cache.demandMshrMisses::total         301051                       # number of demand (read+write) MSHR misses (Count)
system.l2cache.overallMshrMisses::cpu.inst          565                       # number of overall MSHR misses (Count)
system.l2cache.overallMshrMisses::cpu.data       300486                       # number of overall MSHR misses (Count)
system.l2cache.overallMshrMisses::total        301051                       # number of overall MSHR misses (Count)
system.l2cache.demandMshrMissLatency::cpu.inst     67938000                       # number of demand (read+write) MSHR miss ticks (Tick)
system.l2cache.demandMshrMissLatency::cpu.data  32916056000                       # number of demand (read+write) MSHR miss ticks (Tick)
system.l2cache.demandMshrMissLatency::total  32983994000                       # number of demand (read+write) MSHR miss ticks (Tick)
system.l2cache.overallMshrMissLatency::cpu.inst     67938000                       # number of overall MSHR miss ticks (Tick)
system.l2cache.overallMshrMissLatency::cpu.data  32916056000                       # number of overall MSHR miss ticks (Tick)
system.l2cache.overallMshrMissLatency::total  32983994000                       # number of overall MSHR miss ticks (Tick)
system.l2cache.demandMshrMissRate::cpu.inst     0.000235                       # mshr miss ratio for demand accesses (Ratio)
system.l2cache.demandMshrMissRate::cpu.data     0.568451                       # mshr miss ratio for demand accesses (Ratio)
system.l2cache.demandMshrMissRate::total     0.102614                       # mshr miss ratio for demand accesses (Ratio)
system.l2cache.overallMshrMissRate::cpu.inst     0.000235                       # mshr miss ratio for overall accesses (Ratio)
system.l2cache.overallMshrMissRate::cpu.data     0.568451                       # mshr miss ratio for overall accesses (Ratio)
system.l2cache.overallMshrMissRate::total     0.102614                       # mshr miss ratio for overall accesses (Ratio)
system.l2cache.demandAvgMshrMissLatency::cpu.inst 120244.247788                       # average overall mshr miss latency ((Cycle/Count))
system.l2cache.demandAvgMshrMissLatency::cpu.data 109542.727448                       # average overall mshr miss latency ((Cycle/Count))
system.l2cache.demandAvgMshrMissLatency::total 109562.811617                       # average overall mshr miss latency ((Cycle/Count))
system.l2cache.overallAvgMshrMissLatency::cpu.inst 120244.247788                       # average overall mshr miss latency ((Cycle/Count))
system.l2cache.overallAvgMshrMissLatency::cpu.data 109542.727448                       # average overall mshr miss latency ((Cycle/Count))
system.l2cache.overallAvgMshrMissLatency::total 109562.811617                       # average overall mshr miss latency ((Cycle/Count))
system.l2cache.replacements                    292859                       # number of replacements (Count)
system.l2cache.CleanEvict.mshrMisses::writebacks          162                       # number of CleanEvict MSHR misses (Count)
system.l2cache.CleanEvict.mshrMisses::total          162                       # number of CleanEvict MSHR misses (Count)
system.l2cache.CleanEvict.mshrMissRate::writebacks          inf                       # mshr miss rate for CleanEvict accesses (Ratio)
system.l2cache.CleanEvict.mshrMissRate::total          inf                       # mshr miss rate for CleanEvict accesses (Ratio)
system.l2cache.ReadExReq.hits::cpu.data         91252                       # number of ReadExReq hits (Count)
system.l2cache.ReadExReq.hits::total            91252                       # number of ReadExReq hits (Count)
system.l2cache.ReadExReq.misses::cpu.data       142813                       # number of ReadExReq misses (Count)
system.l2cache.ReadExReq.misses::total         142813                       # number of ReadExReq misses (Count)
system.l2cache.ReadExReq.missLatency::cpu.data  19841869000                       # number of ReadExReq miss ticks (Tick)
system.l2cache.ReadExReq.missLatency::total  19841869000                       # number of ReadExReq miss ticks (Tick)
system.l2cache.ReadExReq.accesses::cpu.data       234065                       # number of ReadExReq accesses(hits+misses) (Count)
system.l2cache.ReadExReq.accesses::total       234065                       # number of ReadExReq accesses(hits+misses) (Count)
system.l2cache.ReadExReq.missRate::cpu.data     0.610142                       # miss rate for ReadExReq accesses (Ratio)
system.l2cache.ReadExReq.missRate::total     0.610142                       # miss rate for ReadExReq accesses (Ratio)
system.l2cache.ReadExReq.avgMissLatency::cpu.data 138936.014228                       # average ReadExReq miss latency ((Tick/Count))
system.l2cache.ReadExReq.avgMissLatency::total 138936.014228                       # average ReadExReq miss latency ((Tick/Count))
system.l2cache.ReadExReq.mshrMisses::cpu.data       142813                       # number of ReadExReq MSHR misses (Count)
system.l2cache.ReadExReq.mshrMisses::total       142813                       # number of ReadExReq MSHR misses (Count)
system.l2cache.ReadExReq.mshrMissLatency::cpu.data  16985609000                       # number of ReadExReq MSHR miss ticks (Tick)
system.l2cache.ReadExReq.mshrMissLatency::total  16985609000                       # number of ReadExReq MSHR miss ticks (Tick)
system.l2cache.ReadExReq.mshrMissRate::cpu.data     0.610142                       # mshr miss rate for ReadExReq accesses (Ratio)
system.l2cache.ReadExReq.mshrMissRate::total     0.610142                       # mshr miss rate for ReadExReq accesses (Ratio)
system.l2cache.ReadExReq.avgMshrMissLatency::cpu.data 118936.014228                       # average ReadExReq mshr miss latency ((Tick/Count))
system.l2cache.ReadExReq.avgMshrMissLatency::total 118936.014228                       # average ReadExReq mshr miss latency ((Tick/Count))
system.l2cache.ReadSharedReq.hits::cpu.inst      2404657                       # number of ReadSharedReq hits (Count)
system.l2cache.ReadSharedReq.hits::cpu.data       136867                       # number of ReadSharedReq hits (Count)
system.l2cache.ReadSharedReq.hits::total      2541524                       # number of ReadSharedReq hits (Count)
system.l2cache.ReadSharedReq.misses::cpu.inst          565                       # number of ReadSharedReq misses (Count)
system.l2cache.ReadSharedReq.misses::cpu.data       157673                       # number of ReadSharedReq misses (Count)
system.l2cache.ReadSharedReq.misses::total       158238                       # number of ReadSharedReq misses (Count)
system.l2cache.ReadSharedReq.missLatency::cpu.inst     79238000                       # number of ReadSharedReq miss ticks (Tick)
system.l2cache.ReadSharedReq.missLatency::cpu.data  19083907000                       # number of ReadSharedReq miss ticks (Tick)
system.l2cache.ReadSharedReq.missLatency::total  19163145000                       # number of ReadSharedReq miss ticks (Tick)
system.l2cache.ReadSharedReq.accesses::cpu.inst      2405222                       # number of ReadSharedReq accesses(hits+misses) (Count)
system.l2cache.ReadSharedReq.accesses::cpu.data       294540                       # number of ReadSharedReq accesses(hits+misses) (Count)
system.l2cache.ReadSharedReq.accesses::total      2699762                       # number of ReadSharedReq accesses(hits+misses) (Count)
system.l2cache.ReadSharedReq.missRate::cpu.inst     0.000235                       # miss rate for ReadSharedReq accesses (Ratio)
system.l2cache.ReadSharedReq.missRate::cpu.data     0.535319                       # miss rate for ReadSharedReq accesses (Ratio)
system.l2cache.ReadSharedReq.missRate::total     0.058612                       # miss rate for ReadSharedReq accesses (Ratio)
system.l2cache.ReadSharedReq.avgMissLatency::cpu.inst 140244.247788                       # average ReadSharedReq miss latency ((Tick/Count))
system.l2cache.ReadSharedReq.avgMissLatency::cpu.data 121034.717421                       # average ReadSharedReq miss latency ((Tick/Count))
system.l2cache.ReadSharedReq.avgMissLatency::total 121103.306412                       # average ReadSharedReq miss latency ((Tick/Count))
system.l2cache.ReadSharedReq.mshrMisses::cpu.inst          565                       # number of ReadSharedReq MSHR misses (Count)
system.l2cache.ReadSharedReq.mshrMisses::cpu.data       157673                       # number of ReadSharedReq MSHR misses (Count)
system.l2cache.ReadSharedReq.mshrMisses::total       158238                       # number of ReadSharedReq MSHR misses (Count)
system.l2cache.ReadSharedReq.mshrMissLatency::cpu.inst     67938000                       # number of ReadSharedReq MSHR miss ticks (Tick)
system.l2cache.ReadSharedReq.mshrMissLatency::cpu.data  15930447000                       # number of ReadSharedReq MSHR miss ticks (Tick)
system.l2cache.ReadSharedReq.mshrMissLatency::total  15998385000                       # number of ReadSharedReq MSHR miss ticks (Tick)
system.l2cache.ReadSharedReq.mshrMissRate::cpu.inst     0.000235                       # mshr miss rate for ReadSharedReq accesses (Ratio)
system.l2cache.ReadSharedReq.mshrMissRate::cpu.data     0.535319                       # mshr miss rate for ReadSharedReq accesses (Ratio)
system.l2cache.ReadSharedReq.mshrMissRate::total     0.058612                       # mshr miss rate for ReadSharedReq accesses (Ratio)
system.l2cache.ReadSharedReq.avgMshrMissLatency::cpu.inst 120244.247788                       # average ReadSharedReq mshr miss latency ((Tick/Count))
system.l2cache.ReadSharedReq.avgMshrMissLatency::cpu.data 101034.717421                       # average ReadSharedReq mshr miss latency ((Tick/Count))
system.l2cache.ReadSharedReq.avgMshrMissLatency::total 101103.306412                       # average ReadSharedReq mshr miss latency ((Tick/Count))
system.l2cache.UpgradeReq.hits::cpu.data        14926                       # number of UpgradeReq hits (Count)
system.l2cache.UpgradeReq.hits::total           14926                       # number of UpgradeReq hits (Count)
system.l2cache.UpgradeReq.accesses::cpu.data        14926                       # number of UpgradeReq accesses(hits+misses) (Count)
system.l2cache.UpgradeReq.accesses::total        14926                       # number of UpgradeReq accesses(hits+misses) (Count)
system.l2cache.WritebackDirty.hits::writebacks       341283                       # number of WritebackDirty hits (Count)
system.l2cache.WritebackDirty.hits::total       341283                       # number of WritebackDirty hits (Count)
system.l2cache.WritebackDirty.accesses::writebacks       341283                       # number of WritebackDirty accesses(hits+misses) (Count)
system.l2cache.WritebackDirty.accesses::total       341283                       # number of WritebackDirty accesses(hits+misses) (Count)
system.l2cache.power_state.pwrStateResidencyTicks::UNDEFINED 758753383000                       # Cumulative time (in ticks) in various power states (Tick)
system.l2cache.tags.tagsInUse             8171.671830                       # Average ticks per tags in use ((Tick/Count))
system.l2cache.tags.totalRefs                 5881674                       # Total number of references to valid blocks. (Count)
system.l2cache.tags.sampledRefs                301051                       # Sample count of references to valid blocks. (Count)
system.l2cache.tags.avgRefs                 19.537135                       # Average number of references to valid blocks. ((Count/Count))
system.l2cache.tags.warmupTick                 128000                       # The tick when the warmup percentage was hit. (Tick)
system.l2cache.tags.occupancies::cpu.inst    26.493704                       # Average occupied blocks per tick, per requestor ((Count/Tick))
system.l2cache.tags.occupancies::cpu.data  8145.178126                       # Average occupied blocks per tick, per requestor ((Count/Tick))
system.l2cache.tags.avgOccs::cpu.inst        0.003234                       # Average percentage of cache occupancy ((Ratio/Tick))
system.l2cache.tags.avgOccs::cpu.data        0.994284                       # Average percentage of cache occupancy ((Ratio/Tick))
system.l2cache.tags.avgOccs::total           0.997519                       # Average percentage of cache occupancy ((Ratio/Tick))
system.l2cache.tags.occupanciesTaskId::1024         8192                       # Occupied blocks per task id (Count)
system.l2cache.tags.ageTaskId_1024::0              56                       # Occupied blocks per task id, per block age (Count)
system.l2cache.tags.ageTaskId_1024::1              75                       # Occupied blocks per task id, per block age (Count)
system.l2cache.tags.ageTaskId_1024::2             240                       # Occupied blocks per task id, per block age (Count)
system.l2cache.tags.ageTaskId_1024::3            2394                       # Occupied blocks per task id, per block age (Count)
system.l2cache.tags.ageTaskId_1024::4            5427                       # Occupied blocks per task id, per block age (Count)
system.l2cache.tags.ratioOccsTaskId::1024            1                       # Ratio of occupied blocks and all blocks, per task id (Ratio)
system.l2cache.tags.tagAccesses              47355739                       # Number of tag accesses (Count)
system.l2cache.tags.dataAccesses             47355739                       # Number of data accesses (Count)
system.l2cache.tags.power_state.pwrStateResidencyTicks::UNDEFINED 758753383000                       # Cumulative time (in ticks) in various power states (Tick)
system.l3bus.transDist::ReadResp               158238                       # Transaction distribution (Count)
system.l3bus.transDist::WritebackDirty         311701                       # Transaction distribution (Count)
system.l3bus.transDist::CleanEvict             100430                       # Transaction distribution (Count)
system.l3bus.transDist::ReadExReq              142813                       # Transaction distribution (Count)
system.l3bus.transDist::ReadExResp             142813                       # Transaction distribution (Count)
system.l3bus.transDist::ReadSharedReq          158238                       # Transaction distribution (Count)
system.l3bus.pktCount_system.l2cache.mem_side_port::system.l3cache.cpu_side_port       894811                       # Packet count per connected requestor and responder (Count)
system.l3bus.pktSize_system.l2cache.mem_side_port::system.l3cache.cpu_side_port     32059520                       # Cumulative packet size per connected requestor and responder (Byte)
system.l3bus.snoops                            119422                       # Total snoops (Count)
system.l3bus.snoopTraffic                     7156608                       # Total snoop traffic (Byte)
system.l3bus.snoopFanout::samples              420473                       # Request fanout histogram (Count)
system.l3bus.snoopFanout::mean               0.001272                       # Request fanout histogram (Count)
system.l3bus.snoopFanout::stdev              0.035648                       # Request fanout histogram (Count)
system.l3bus.snoopFanout::underflows                0      0.00%      0.00% # Request fanout histogram (Count)
system.l3bus.snoopFanout::0                    419938     99.87%     99.87% # Request fanout histogram (Count)
system.l3bus.snoopFanout::1                       535      0.13%    100.00% # Request fanout histogram (Count)
system.l3bus.snoopFanout::overflows                 0      0.00%    100.00% # Request fanout histogram (Count)
system.l3bus.snoopFanout::min_value                 0                       # Request fanout histogram (Count)
system.l3bus.snoopFanout::max_value                 1                       # Request fanout histogram (Count)
system.l3bus.snoopFanout::total                420473                       # Request fanout histogram (Count)
system.l3bus.power_state.pwrStateResidencyTicks::UNDEFINED 758753383000                       # Cumulative time (in ticks) in various power states (Tick)
system.l3bus.reqLayer0.occupancy            993518000                       # Layer occupancy (ticks) (Tick)
system.l3bus.reqLayer0.utilization                0.0                       # Layer utilization (Ratio)
system.l3bus.respLayer0.occupancy           903153000                       # Layer occupancy (ticks) (Tick)
system.l3bus.respLayer0.utilization               0.0                       # Layer utilization (Ratio)
system.l3bus.snoop_filter.totRequests          593760                       # Total number of requests made to the snoop filter. (Count)
system.l3bus.snoop_filter.hitSingleRequests       292709                       # Number of requests hitting in the snoop filter with a single holder of the requested data. (Count)
system.l3bus.snoop_filter.hitMultiRequests            0                       # Number of requests hitting in the snoop filter with multiple (>1) holders of the requested data. (Count)
system.l3bus.snoop_filter.totSnoops               535                       # Total number of snoops made to the snoop filter. (Count)
system.l3bus.snoop_filter.hitSingleSnoops          535                       # Number of snoops hitting in the snoop filter with a single holder of the requested data. (Count)
system.l3bus.snoop_filter.hitMultiSnoops            0                       # Number of snoops hitting in the snoop filter with multiple (>1) holders of the requested data. (Count)
system.l3cache.demandHits::cpu.inst                12                       # number of demand (read+write) hits (Count)
system.l3cache.demandHits::cpu.data             50568                       # number of demand (read+write) hits (Count)
system.l3cache.demandHits::total                50580                       # number of demand (read+write) hits (Count)
system.l3cache.overallHits::cpu.inst               12                       # number of overall hits (Count)
system.l3cache.overallHits::cpu.data            50568                       # number of overall hits (Count)
system.l3cache.overallHits::total               50580                       # number of overall hits (Count)
system.l3cache.demandMisses::cpu.inst             553                       # number of demand (read+write) misses (Count)
system.l3cache.demandMisses::cpu.data          249918                       # number of demand (read+write) misses (Count)
system.l3cache.demandMisses::total             250471                       # number of demand (read+write) misses (Count)
system.l3cache.overallMisses::cpu.inst            553                       # number of overall misses (Count)
system.l3cache.overallMisses::cpu.data         249918                       # number of overall misses (Count)
system.l3cache.overallMisses::total            250471                       # number of overall misses (Count)
system.l3cache.demandMissLatency::cpu.inst     55256000                       # number of demand (read+write) miss ticks (Tick)
system.l3cache.demandMissLatency::cpu.data  25243436000                       # number of demand (read+write) miss ticks (Tick)
system.l3cache.demandMissLatency::total   25298692000                       # number of demand (read+write) miss ticks (Tick)
system.l3cache.overallMissLatency::cpu.inst     55256000                       # number of overall miss ticks (Tick)
system.l3cache.overallMissLatency::cpu.data  25243436000                       # number of overall miss ticks (Tick)
system.l3cache.overallMissLatency::total  25298692000                       # number of overall miss ticks (Tick)
system.l3cache.demandAccesses::cpu.inst           565                       # number of demand (read+write) accesses (Count)
system.l3cache.demandAccesses::cpu.data        300486                       # number of demand (read+write) accesses (Count)
system.l3cache.demandAccesses::total           301051                       # number of demand (read+write) accesses (Count)
system.l3cache.overallAccesses::cpu.inst          565                       # number of overall (read+write) accesses (Count)
system.l3cache.overallAccesses::cpu.data       300486                       # number of overall (read+write) accesses (Count)
system.l3cache.overallAccesses::total          301051                       # number of overall (read+write) accesses (Count)
system.l3cache.demandMissRate::cpu.inst      0.978761                       # miss rate for demand accesses (Ratio)
system.l3cache.demandMissRate::cpu.data      0.831713                       # miss rate for demand accesses (Ratio)
system.l3cache.demandMissRate::total         0.831989                       # miss rate for demand accesses (Ratio)
system.l3cache.overallMissRate::cpu.inst     0.978761                       # miss rate for overall accesses (Ratio)
system.l3cache.overallMissRate::cpu.data     0.831713                       # miss rate for overall accesses (Ratio)
system.l3cache.overallMissRate::total        0.831989                       # miss rate for overall accesses (Ratio)
system.l3cache.demandAvgMissLatency::cpu.inst 99920.433996                       # average overall miss latency ((Cycle/Count))
system.l3cache.demandAvgMissLatency::cpu.data 101006.874255                       # average overall miss latency ((Cycle/Count))
system.l3cache.demandAvgMissLatency::total 101004.475568                       # average overall miss latency ((Cycle/Count))
system.l3cache.overallAvgMissLatency::cpu.inst 99920.433996                       # average overall miss latency ((Cycle/Count))
system.l3cache.overallAvgMissLatency::cpu.data 101006.874255                       # average overall miss latency ((Cycle/Count))
system.l3cache.overallAvgMissLatency::total 101004.475568                       # average overall miss latency ((Cycle/Count))
system.l3cache.blockedCycles::no_mshrs              0                       # number of cycles access was blocked (Cycle)
system.l3cache.blockedCycles::no_targets            0                       # number of cycles access was blocked (Cycle)
system.l3cache.blockedCauses::no_mshrs              0                       # number of times access was blocked (Count)
system.l3cache.blockedCauses::no_targets            0                       # number of times access was blocked (Count)
system.l3cache.avgBlocked::no_mshrs               nan                       # average number of cycles each access was blocked ((Cycle/Count))
system.l3cache.avgBlocked::no_targets             nan                       # average number of cycles each access was blocked ((Cycle/Count))
system.l3cache.writebacks::writebacks          111822                       # number of writebacks (Count)
system.l3cache.writebacks::total               111822                       # number of writebacks (Count)
system.l3cache.demandMshrMisses::cpu.inst          553                       # number of demand (read+write) MSHR misses (Count)
system.l3cache.demandMshrMisses::cpu.data       249918                       # number of demand (read+write) MSHR misses (Count)
system.l3cache.demandMshrMisses::total         250471                       # number of demand (read+write) MSHR misses (Count)
system.l3cache.overallMshrMisses::cpu.inst          553                       # number of overall MSHR misses (Count)
system.l3cache.overallMshrMisses::cpu.data       249918                       # number of overall MSHR misses (Count)
system.l3cache.overallMshrMisses::total        250471                       # number of overall MSHR misses (Count)
system.l3cache.demandMshrMissLatency::cpu.inst     44196000                       # number of demand (read+write) MSHR miss ticks (Tick)
system.l3cache.demandMshrMissLatency::cpu.data  20245076000                       # number of demand (read+write) MSHR miss ticks (Tick)
system.l3cache.demandMshrMissLatency::total  20289272000                       # number of demand (read+write) MSHR miss ticks (Tick)
system.l3cache.overallMshrMissLatency::cpu.inst     44196000                       # number of overall MSHR miss ticks (Tick)
system.l3cache.overallMshrMissLatency::cpu.data  20245076000                       # number of overall MSHR miss ticks (Tick)
system.l3cache.overallMshrMissLatency::total  20289272000                       # number of overall MSHR miss ticks (Tick)
system.l3cache.demandMshrMissRate::cpu.inst     0.978761                       # mshr miss ratio for demand accesses (Ratio)
system.l3cache.demandMshrMissRate::cpu.data     0.831713                       # mshr miss ratio for demand accesses (Ratio)
system.l3cache.demandMshrMissRate::total     0.831989                       # mshr miss ratio for demand accesses (Ratio)
system.l3cache.overallMshrMissRate::cpu.inst     0.978761                       # mshr miss ratio for overall accesses (Ratio)
system.l3cache.overallMshrMissRate::cpu.data     0.831713                       # mshr miss ratio for overall accesses (Ratio)
system.l3cache.overallMshrMissRate::total     0.831989                       # mshr miss ratio for overall accesses (Ratio)
system.l3cache.demandAvgMshrMissLatency::cpu.inst 79920.433996                       # average overall mshr miss latency ((Cycle/Count))
system.l3cache.demandAvgMshrMissLatency::cpu.data 81006.874255                       # average overall mshr miss latency ((Cycle/Count))
system.l3cache.demandAvgMshrMissLatency::total 81004.475568                       # average overall mshr miss latency ((Cycle/Count))
system.l3cache.overallAvgMshrMissLatency::cpu.inst 79920.433996                       # average overall mshr miss latency ((Cycle/Count))
system.l3cache.overallAvgMshrMissLatency::cpu.data 81006.874255                       # average overall mshr miss latency ((Cycle/Count))
system.l3cache.overallAvgMshrMissLatency::total 81004.475568                       # average overall mshr miss latency ((Cycle/Count))
system.l3cache.replacements                    119422                       # number of replacements (Count)
system.l3cache.CleanEvict.mshrMisses::writebacks          149                       # number of CleanEvict MSHR misses (Count)
system.l3cache.CleanEvict.mshrMisses::total          149                       # number of CleanEvict MSHR misses (Count)
system.l3cache.CleanEvict.mshrMissRate::writebacks          inf                       # mshr miss rate for CleanEvict accesses (Ratio)
system.l3cache.CleanEvict.mshrMissRate::total          inf                       # mshr miss rate for CleanEvict accesses (Ratio)
system.l3cache.ReadExReq.hits::cpu.data            16                       # number of ReadExReq hits (Count)
system.l3cache.ReadExReq.hits::total               16                       # number of ReadExReq hits (Count)
system.l3cache.ReadExReq.misses::cpu.data       142797                       # number of ReadExReq misses (Count)
system.l3cache.ReadExReq.misses::total         142797                       # number of ReadExReq misses (Count)
system.l3cache.ReadExReq.missLatency::cpu.data  13843387000                       # number of ReadExReq miss ticks (Tick)
system.l3cache.ReadExReq.missLatency::total  13843387000                       # number of ReadExReq miss ticks (Tick)
system.l3cache.ReadExReq.accesses::cpu.data       142813                       # number of ReadExReq accesses(hits+misses) (Count)
system.l3cache.ReadExReq.accesses::total       142813                       # number of ReadExReq accesses(hits+misses) (Count)
system.l3cache.ReadExReq.missRate::cpu.data     0.999888                       # miss rate for ReadExReq accesses (Ratio)
system.l3cache.ReadExReq.missRate::total     0.999888                       # miss rate for ReadExReq accesses (Ratio)
system.l3cache.ReadExReq.avgMissLatency::cpu.data 96944.522644                       # average ReadExReq miss latency ((Tick/Count))
system.l3cache.ReadExReq.avgMissLatency::total 96944.522644                       # average ReadExReq miss latency ((Tick/Count))
system.l3cache.ReadExReq.mshrMisses::cpu.data       142797                       # number of ReadExReq MSHR misses (Count)
system.l3cache.ReadExReq.mshrMisses::total       142797                       # number of ReadExReq MSHR misses (Count)
system.l3cache.ReadExReq.mshrMissLatency::cpu.data  10987447000                       # number of ReadExReq MSHR miss ticks (Tick)
system.l3cache.ReadExReq.mshrMissLatency::total  10987447000                       # number of ReadExReq MSHR miss ticks (Tick)
system.l3cache.ReadExReq.mshrMissRate::cpu.data     0.999888                       # mshr miss rate for ReadExReq accesses (Ratio)
system.l3cache.ReadExReq.mshrMissRate::total     0.999888                       # mshr miss rate for ReadExReq accesses (Ratio)
system.l3cache.ReadExReq.avgMshrMissLatency::cpu.data 76944.522644                       # average ReadExReq mshr miss latency ((Tick/Count))
system.l3cache.ReadExReq.avgMshrMissLatency::total 76944.522644                       # average ReadExReq mshr miss latency ((Tick/Count))
system.l3cache.ReadSharedReq.hits::cpu.inst           12                       # number of ReadSharedReq hits (Count)
system.l3cache.ReadSharedReq.hits::cpu.data        50552                       # number of ReadSharedReq hits (Count)
system.l3cache.ReadSharedReq.hits::total        50564                       # number of ReadSharedReq hits (Count)
system.l3cache.ReadSharedReq.misses::cpu.inst          553                       # number of ReadSharedReq misses (Count)
system.l3cache.ReadSharedReq.misses::cpu.data       107121                       # number of ReadSharedReq misses (Count)
system.l3cache.ReadSharedReq.misses::total       107674                       # number of ReadSharedReq misses (Count)
system.l3cache.ReadSharedReq.missLatency::cpu.inst     55256000                       # number of ReadSharedReq miss ticks (Tick)
system.l3cache.ReadSharedReq.missLatency::cpu.data  11400049000                       # number of ReadSharedReq miss ticks (Tick)
system.l3cache.ReadSharedReq.missLatency::total  11455305000                       # number of ReadSharedReq miss ticks (Tick)
system.l3cache.ReadSharedReq.accesses::cpu.inst          565                       # number of ReadSharedReq accesses(hits+misses) (Count)
system.l3cache.ReadSharedReq.accesses::cpu.data       157673                       # number of ReadSharedReq accesses(hits+misses) (Count)
system.l3cache.ReadSharedReq.accesses::total       158238                       # number of ReadSharedReq accesses(hits+misses) (Count)
system.l3cache.ReadSharedReq.missRate::cpu.inst     0.978761                       # miss rate for ReadSharedReq accesses (Ratio)
system.l3cache.ReadSharedReq.missRate::cpu.data     0.679387                       # miss rate for ReadSharedReq accesses (Ratio)
[...]
system.mem_ctrl.dram.bytesInstRead::total        35392                       # Number of instructions bytes read from this memory (Byte)
system.mem_ctrl.dram.bytesWritten::writebacks      7156608                       # Number of bytes written to this memory (Byte)
system.mem_ctrl.dram.bytesWritten::total      7156608                       # Number of bytes written to this memory (Byte)
system.mem_ctrl.dram.numReads::cpu.inst           553                       # Number of read requests responded to by this memory (Count)
system.mem_ctrl.dram.numReads::cpu.data        249918                       # Number of read requests responded to by this memory (Count)
system.mem_ctrl.dram.numReads::total           250471                       # Number of read requests responded to by this memory (Count)
system.mem_ctrl.dram.numWrites::writebacks       111822                       # Number of write requests responded to by this memory (Count)
system.mem_ctrl.dram.numWrites::total          111822                       # Number of write requests responded to by this memory (Count)
system.mem_ctrl.dram.bwRead::cpu.inst           46645                       # Total read bandwidth from this memory ((Byte/Second))
system.mem_ctrl.dram.bwRead::cpu.data        21080304                       # Total read bandwidth from this memory ((Byte/Second))
system.mem_ctrl.dram.bwRead::total           21126949                       # Total read bandwidth from this memory ((Byte/Second))
system.mem_ctrl.dram.bwInstRead::cpu.inst        46645                       # Instruction read bandwidth from this memory ((Byte/Second))
system.mem_ctrl.dram.bwInstRead::total          46645                       # Instruction read bandwidth from this memory ((Byte/Second))
system.mem_ctrl.dram.bwWrite::writebacks      9432061                       # Write bandwidth from this memory ((Byte/Second))
system.mem_ctrl.dram.bwWrite::total           9432061                       # Write bandwidth from this memory ((Byte/Second))
system.mem_ctrl.dram.bwTotal::writebacks      9432061                       # Total bandwidth to/from this memory ((Byte/Second))
system.mem_ctrl.dram.bwTotal::cpu.inst          46645                       # Total bandwidth to/from this memory ((Byte/Second))
system.mem_ctrl.dram.bwTotal::cpu.data       21080304                       # Total bandwidth to/from this memory ((Byte/Second))
system.mem_ctrl.dram.bwTotal::total          30559010                       # Total bandwidth to/from this memory ((Byte/Second))
system.mem_ctrl.dram.readBursts                250427                       # Number of DRAM read bursts (Count)
system.mem_ctrl.dram.writeBursts               111791                       # Number of DRAM write bursts (Count)
system.mem_ctrl.dram.perBankRdBursts::0         15857                       # Per bank write bursts (Count)
system.mem_ctrl.dram.perBankRdBursts::1         14014                       # Per bank write bursts (Count)
system.mem_ctrl.dram.perBankRdBursts::2         15002                       # Per bank write bursts (Count)
system.mem_ctrl.dram.perBankRdBursts::3         15362                       # Per bank write bursts (Count)
system.mem_ctrl.dram.perBankRdBursts::4         14477                       # Per bank write bursts (Count)
system.mem_ctrl.dram.perBankRdBursts::5         14880                       # Per bank write bursts (Count)
system.mem_ctrl.dram.perBankRdBursts::6         16923                       # Per bank write bursts (Count)
system.mem_ctrl.dram.perBankRdBursts::7         16149                       # Per bank write bursts (Count)
system.mem_ctrl.dram.perBankRdBursts::8         15392                       # Per bank write bursts (Count)
system.mem_ctrl.dram.perBankRdBursts::9         17104                       # Per bank write bursts (Count)
system.mem_ctrl.dram.perBankRdBursts::10        16253                       # Per bank write bursts (Count)
system.mem_ctrl.dram.perBankRdBursts::11        15327                       # Per bank write bursts (Count)
system.mem_ctrl.dram.perBankRdBursts::12        16885                       # Per bank write bursts (Count)
system.mem_ctrl.dram.perBankRdBursts::13        16052                       # Per bank write bursts (Count)
system.mem_ctrl.dram.perBankRdBursts::14        15490                       # Per bank write bursts (Count)
system.mem_ctrl.dram.perBankRdBursts::15        15260                       # Per bank write bursts (Count)
system.mem_ctrl.dram.perBankWrBursts::0          7036                       # Per bank write bursts (Count)
system.mem_ctrl.dram.perBankWrBursts::1          5598                       # Per bank write bursts (Count)
system.mem_ctrl.dram.perBankWrBursts::2          6531                       # Per bank write bursts (Count)
system.mem_ctrl.dram.perBankWrBursts::3          6746                       # Per bank write bursts (Count)
system.mem_ctrl.dram.perBankWrBursts::4          5952                       # Per bank write bursts (Count)
system.mem_ctrl.dram.perBankWrBursts::5          6302                       # Per bank write bursts (Count)
system.mem_ctrl.dram.perBankWrBursts::6          8172                       # Per bank write bursts (Count)
system.mem_ctrl.dram.perBankWrBursts::7          7364                       # Per bank write bursts (Count)
system.mem_ctrl.dram.perBankWrBursts::8          6741                       # Per bank write bursts (Count)
system.mem_ctrl.dram.perBankWrBursts::9          8322                       # Per bank write bursts (Count)
system.mem_ctrl.dram.perBankWrBursts::10         7451                       # Per bank write bursts (Count)
system.mem_ctrl.dram.perBankWrBursts::11         6655                       # Per bank write bursts (Count)
system.mem_ctrl.dram.perBankWrBursts::12         8128                       # Per bank write bursts (Count)
system.mem_ctrl.dram.perBankWrBursts::13         7246                       # Per bank write bursts (Count)
system.mem_ctrl.dram.perBankWrBursts::14         6796                       # Per bank write bursts (Count)
system.mem_ctrl.dram.perBankWrBursts::15         6751                       # Per bank write bursts (Count)
system.mem_ctrl.dram.totQLat               2731742000                       # Total ticks spent queuing (Tick)
system.mem_ctrl.dram.totBusLat             1252135000                       # Total ticks spent in databus transfers (Tick)
system.mem_ctrl.dram.totMemAccLat          7427248250                       # Total ticks spent from burst creation until serviced by the DRAM (Tick)
system.mem_ctrl.dram.avgQLat                 10908.34                       # Average queueing delay per DRAM burst ((Tick/Count))
system.mem_ctrl.dram.avgBusLat                5000.00                       # Average bus latency per DRAM burst ((Tick/Count))
system.mem_ctrl.dram.avgMemAccLat            29658.34                       # Average memory access latency per DRAM burst ((Tick/Count))
system.mem_ctrl.dram.readRowHits               146049                       # Number of row buffer hits during reads (Count)
system.mem_ctrl.dram.writeRowHits               95686                       # Number of row buffer hits during writes (Count)
system.mem_ctrl.dram.readRowHitRate             58.32                       # Row buffer hit rate for reads (Ratio)
system.mem_ctrl.dram.writeRowHitRate            85.59                       # Row buffer hit rate for writes (Ratio)
system.mem_ctrl.dram.bytesPerActivate::samples       120476                       # Bytes accessed per row activation (Byte)
system.mem_ctrl.dram.bytesPerActivate::mean   192.406919                       # Bytes accessed per row activation (Byte)
system.mem_ctrl.dram.bytesPerActivate::gmean   138.423666                       # Bytes accessed per row activation (Byte)
system.mem_ctrl.dram.bytesPerActivate::stdev   203.462337                       # Bytes accessed per row activation (Byte)
system.mem_ctrl.dram.bytesPerActivate::0-127        41974     34.84%     34.84% # Bytes accessed per row activation (Byte)
system.mem_ctrl.dram.bytesPerActivate::128-255        41020     34.05%     68.89% # Bytes accessed per row activation (Byte)
system.mem_ctrl.dram.bytesPerActivate::256-383        28747     23.86%     92.75% # Bytes accessed per row activation (Byte)
system.mem_ctrl.dram.bytesPerActivate::384-511          956      0.79%     93.54% # Bytes accessed per row activation (Byte)
system.mem_ctrl.dram.bytesPerActivate::512-639          707      0.59%     94.13% # Bytes accessed per row activation (Byte)
system.mem_ctrl.dram.bytesPerActivate::640-767         1478      1.23%     95.36% # Bytes accessed per row activation (Byte)
system.mem_ctrl.dram.bytesPerActivate::768-895          609      0.51%     95.86% # Bytes accessed per row activation (Byte)
system.mem_ctrl.dram.bytesPerActivate::896-1023         1834      1.52%     97.38% # Bytes accessed per row activation (Byte)
system.mem_ctrl.dram.bytesPerActivate::1024-1151         3151      2.62%    100.00% # Bytes accessed per row activation (Byte)
system.mem_ctrl.dram.bytesPerActivate::total       120476                       # Bytes accessed per row activation (Byte)
system.mem_ctrl.dram.bytesRead               16027328                       # Total bytes read (Byte)
system.mem_ctrl.dram.bytesWritten             7154624                       # Total bytes written (Byte)
system.mem_ctrl.dram.avgRdBW                21.123238                       # Average DRAM read bandwidth in MiBytes/s ((Byte/Second))
system.mem_ctrl.dram.avgWrBW                 9.429446                       # Average DRAM write bandwidth in MiBytes/s ((Byte/Second))
system.mem_ctrl.dram.peakBW                  12800.00                       # Theoretical peak bandwidth in MiByte/s ((Byte/Second))
system.mem_ctrl.dram.busUtil                     0.24                       # Data bus utilization in percentage (Ratio)
system.mem_ctrl.dram.busUtilRead                 0.17                       # Data bus utilization in percentage for reads (Ratio)
system.mem_ctrl.dram.busUtilWrite                0.07                       # Data bus utilization in percentage for writes (Ratio)
system.mem_ctrl.dram.pageHitRate                66.74                       # Row buffer hit rate, read and write combined (Ratio)
system.mem_ctrl.dram.power_state.pwrStateResidencyTicks::UNDEFINED 758753383000                       # Cumulative time (in ticks) in various power states (Tick)
system.mem_ctrl.dram.rank0.actEnergy        416012100                       # Energy for activate commands per rank (pJ) (Joule)
system.mem_ctrl.dram.rank0.preEnergy        221104290                       # Energy for precharge commands per rank (pJ) (Joule)
system.mem_ctrl.dram.rank0.readEnergy       875820960                       # Energy for read commands per rank (pJ) (Joule)
system.mem_ctrl.dram.rank0.writeEnergy      280319220                       # Energy for write commands per rank (pJ) (Joule)
system.mem_ctrl.dram.rank0.refreshEnergy 59894824080.000008                       # Energy for refresh commands per rank (pJ) (Joule)
system.mem_ctrl.dram.rank0.actBackEnergy 129329963040                       # Energy for active background per rank (pJ) (Joule)
system.mem_ctrl.dram.rank0.preBackEnergy 182451856800                       # Energy for precharge background per rank (pJ) (Joule)
system.mem_ctrl.dram.rank0.actPowerDownEnergy            0                       # Energy for active power-down per rank (pJ) (Joule)
system.mem_ctrl.dram.rank0.prePowerDownEnergy            0                       # Energy for precharge power-down per rank (pJ) (Joule)
system.mem_ctrl.dram.rank0.selfRefreshEnergy            0                       # Energy for self refresh per rank (pJ) (Joule)
system.mem_ctrl.dram.rank0.totalEnergy   373469900490                       # Total energy per rank (pJ) (Joule)
system.mem_ctrl.dram.rank0.averagePower    492.215137                       # Core power per rank (mW) (Watt)
system.mem_ctrl.dram.rank0.totalIdleTime            0                       # Total Idle time Per DRAM Rank (Tick)
system.mem_ctrl.dram.rank0.pwrStateTime::IDLE 473104563750                       # Time in different power states (Tick)
system.mem_ctrl.dram.rank0.pwrStateTime::REF  25336220000                       # Time in different power states (Tick)
system.mem_ctrl.dram.rank0.pwrStateTime::SREF            0                       # Time in different power states (Tick)
system.mem_ctrl.dram.rank0.pwrStateTime::PRE_PDN            0                       # Time in different power states (Tick)
system.mem_ctrl.dram.rank0.pwrStateTime::ACT 260312599250                       # Time in different power states (Tick)
system.mem_ctrl.dram.rank0.pwrStateTime::ACT_PDN            0                       # Time in different power states (Tick)
system.mem_ctrl.dram.rank1.actEnergy        444236520                       # Energy for activate commands per rank (pJ) (Joule)
system.mem_ctrl.dram.rank1.preEnergy        236102130                       # Energy for precharge commands per rank (pJ) (Joule)
system.mem_ctrl.dram.rank1.readEnergy       912227820                       # Energy for read commands per rank (pJ) (Joule)
system.mem_ctrl.dram.rank1.writeEnergy      303229800                       # Energy for write commands per rank (pJ) (Joule)
system.mem_ctrl.dram.rank1.refreshEnergy 59894824080.000008                       # Energy for refresh commands per rank (pJ) (Joule)
system.mem_ctrl.dram.rank1.actBackEnergy 136486424190                       # Energy for active background per rank (pJ) (Joule)
system.mem_ctrl.dram.rank1.preBackEnergy 176425363200                       # Energy for precharge background per rank (pJ) (Joule)
system.mem_ctrl.dram.rank1.actPowerDownEnergy            0                       # Energy for active power-down per rank (pJ) (Joule)
system.mem_ctrl.dram.rank1.prePowerDownEnergy            0                       # Energy for precharge power-down per rank (pJ) (Joule)
system.mem_ctrl.dram.rank1.selfRefreshEnergy            0                       # Energy for self refresh per rank (pJ) (Joule)
system.mem_ctrl.dram.rank1.totalEnergy   374702407740                       # Total energy per rank (pJ) (Joule)
system.mem_ctrl.dram.rank1.averagePower    493.839522                       # Core power per rank (mW) (Watt)
system.mem_ctrl.dram.rank1.totalIdleTime            0                       # Total Idle time Per DRAM Rank (Tick)
system.mem_ctrl.dram.rank1.pwrStateTime::IDLE 457370949000                       # Time in different power states (Tick)
system.mem_ctrl.dram.rank1.pwrStateTime::REF  25336220000                       # Time in different power states (Tick)
system.mem_ctrl.dram.rank1.pwrStateTime::SREF            0                       # Time in different power states (Tick)
system.mem_ctrl.dram.rank1.pwrStateTime::PRE_PDN            0                       # Time in different power states (Tick)
system.mem_ctrl.dram.rank1.pwrStateTime::ACT 276046214000                       # Time in different power states (Tick)
system.mem_ctrl.dram.rank1.pwrStateTime::ACT_PDN            0                       # Time in different power states (Tick)
system.mem_ctrl.power_state.pwrStateResidencyTicks::UNDEFINED 758753383000                       # Cumulative time (in ticks) in various power states (Tick)
system.membus.transDist::ReadResp              107674                       # Transaction distribution (Count)
system.membus.transDist::WritebackDirty        111822                       # Transaction distribution (Count)
system.membus.transDist::CleanEvict              7214                       # Transaction distribution (Count)
system.membus.transDist::ReadExReq             142797                       # Transaction distribution (Count)
system.membus.transDist::ReadExResp            142797                       # Transaction distribution (Count)
system.membus.transDist::ReadSharedReq         107674                       # Transaction distribution (Count)
system.membus.pktCount_system.l3cache.mem_side_port::system.mem_ctrl.port       619978                       # Packet count per connected requestor and responder (Count)
system.membus.pktCount::total                  619978                       # Packet count per connected requestor and responder (Count)
system.membus.pktSize_system.l3cache.mem_side_port::system.mem_ctrl.port     23186752                       # Cumulative packet size per connected requestor and responder (Byte)
system.membus.pktSize::total                 23186752                       # Cumulative packet size per connected requestor and responder (Byte)
system.membus.snoops                                0                       # Total snoops (Count)
system.membus.snoopTraffic                          0                       # Total snoop traffic (Byte)
system.membus.snoopFanout::samples             250471                       # Request fanout histogram (Count)
system.membus.snoopFanout::mean                     0                       # Request fanout histogram (Count)
system.membus.snoopFanout::stdev                    0                       # Request fanout histogram (Count)
system.membus.snoopFanout::underflows               0      0.00%      0.00% # Request fanout histogram (Count)
system.membus.snoopFanout::0                   250471    100.00%    100.00% # Request fanout histogram (Count)
system.membus.snoopFanout::1                        0      0.00%    100.00% # Request fanout histogram (Count)
system.membus.snoopFanout::overflows                0      0.00%    100.00% # Request fanout histogram (Count)
system.membus.snoopFanout::min_value                0                       # Request fanout histogram (Count)
system.membus.snoopFanout::max_value                0                       # Request fanout histogram (Count)
system.membus.snoopFanout::total               250471                       # Request fanout histogram (Count)
system.membus.power_state.pwrStateResidencyTicks::UNDEFINED 758753383000                       # Cumulative time (in ticks) in various power states (Tick)
system.membus.reqLayer0.occupancy           816795000                       # Layer occupancy (ticks) (Tick)
system.membus.reqLayer0.utilization               0.0                       # Layer utilization (Ratio)
system.membus.respLayer0.occupancy         1340797250                       # Layer occupancy (ticks) (Tick)
system.membus.respLayer0.utilization              0.0                       # Layer utilization (Ratio)
system.membus.snoop_filter.totRequests         369507                       # Total number of requests made to the snoop filter. (Count)
system.membus.snoop_filter.hitSingleRequests       119036                       # Number of requests hitting in the snoop filter with a single holder of the requested data. (Count)
system.membus.snoop_filter.hitMultiRequests            0                       # Number of requests hitting in the snoop filter with multiple (>1) holders of the requested data. (Count)
system.membus.snoop_filter.totSnoops                0                       # Total number of snoops made to the snoop filter. (Count)
system.membus.snoop_filter.hitSingleSnoops            0                       # Number of snoops hitting in the snoop filter with a single holder of the requested data. (Count)
system.membus.snoop_filter.hitMultiSnoops            0                       # Number of snoops hitting in the snoop filter with multiple (>1) holders of the requested data. (Count)
system.workload.inst.arm                            0                       # number of arm instructions executed (Count)
system.workload.inst.quiesce                        0                       # number of quiesce instructions executed (Count)

---------- End Simulation Statistics   ----------
