
---------- Begin Simulation Statistics ----------
simSeconds                                   0.310688                       # Number of seconds simulated (Second)
simTicks                                 310687746000                       # Number of ticks simulated (Tick)
finalTick                                310687746000                       # Number of ticks from beginning of simulation (restored from checkpoints and never reset) (Tick)
simFreq                                  1000000000000                       # The number of ticks per simulated second ((Tick/Second))
hostSeconds                                     65.94                       # Real time elapsed on the host (Second)
hostTickRate                               4711469067                       # The number of ticks simulated per host second (ticks/s) ((Tick/Second))
hostMemory                                    8547004                       # Number of bytes of host memory used (Byte)
simInsts                                     99629017                       # Number of instructions simulated (Count)
simOps                                       99629017                       # Number of ops (including micro ops) simulated (Count)
hostInstRate                                  1510837                       # Simulator instruction rate (inst/s) ((Count/Second))
hostOpRate                                    1510836                       # Simulator op (including micro ops) rate (op/s) ((Count/Second))
system.clk_domain.clock                          1000                       # Clock period in ticks (Tick)
system.clk_domain.voltage_domain.voltage            1                       # Voltage in Volts (Volt)
system.cpu.numCycles                        310687746                       # Number of cpu cycles simulated (Cycle)
system.cpu.numWorkItemsStarted                      0                       # Number of work items this cpu started (Count)
system.cpu.numWorkItemsCompleted                    0                       # Number of work items this cpu completed (Count)
system.cpu.dcache.demandHits::cpu.data       50515683                       # number of demand (read+write) hits (Count)
system.cpu.dcache.demandHits::total          50515683                       # number of demand (read+write) hits (Count)
system.cpu.dcache.overallHits::cpu.data      50515683                       # number of overall hits (Count)
system.cpu.dcache.overallHits::total         50515683                       # number of overall hits (Count)
system.cpu.dcache.demandMisses::cpu.data       326252                       # number of demand (read+write) misses (Count)
system.cpu.dcache.demandMisses::total          326252                       # number of demand (read+write) misses (Count)
system.cpu.dcache.overallMisses::cpu.data       326252                       # number of overall misses (Count)
system.cpu.dcache.overallMisses::total         326252                       # number of overall misses (Count)
system.cpu.dcache.demandMissLatency::cpu.data  10337582000                       # number of demand (read+write) miss ticks (Tick)
system.cpu.dcache.demandMissLatency::total  10337582000                       # number of demand (read+write) miss ticks (Tick)
system.cpu.dcache.overallMissLatency::cpu.data  10337582000                       # number of overall miss ticks (Tick)
system.cpu.dcache.overallMissLatency::total  10337582000                       # number of overall miss ticks (Tick)
system.cpu.dcache.demandAccesses::cpu.data     50841935                       # number of demand (read+write) accesses (Count)
system.cpu.dcache.demandAccesses::total      50841935                       # number of demand (read+write) accesses (Count)
system.cpu.dcache.overallAccesses::cpu.data     50841935                       # number of overall (read+write) accesses (Count)
system.cpu.dcache.overallAccesses::total     50841935                       # number of overall (read+write) accesses (Count)
system.cpu.dcache.demandMissRate::cpu.data     0.006417                       # miss rate for demand accesses (Ratio)
system.cpu.dcache.demandMissRate::total      0.006417                       # miss rate for demand accesses (Ratio)
system.cpu.dcache.overallMissRate::cpu.data     0.006417                       # miss rate for overall accesses (Ratio)
system.cpu.dcache.overallMissRate::total     0.006417                       # miss rate for overall accesses (Ratio)
system.cpu.dcache.demandAvgMissLatency::cpu.data 31685.880853                       # average overall miss latency ((Cycle/Count))
system.cpu.dcache.demandAvgMissLatency::total 31685.880853                       # average overall miss latency ((Cycle/Count))
system.cpu.dcache.overallAvgMissLatency::cpu.data 31685.880853                       # average overall miss latency ((Cycle/Count))
system.cpu.dcache.overallAvgMissLatency::total 31685.880853                       # average overall miss latency ((Cycle/Count))
system.cpu.dcache.blockedCycles::no_mshrs            0                       # number of cycles access was blocked (Cycle)
system.cpu.dcache.blockedCycles::no_targets            0                       # number of cycles access was blocked (Cycle)
system.cpu.dcache.blockedCauses::no_mshrs            0                       # number of times access was blocked (Count)
system.cpu.dcache.blockedCauses::no_targets            0                       # number of times access was blocked (Count)
system.cpu.dcache.avgBlocked::no_mshrs            nan                       # average number of cycles each access was blocked ((Cycle/Count))
system.cpu.dcache.avgBlocked::no_targets          nan                       # average number of cycles each access was blocked ((Cycle/Count))
system.cpu.dcache.writebacks::writebacks       164652                       # number of writebacks (Count)
system.cpu.dcache.writebacks::total            164652                       # number of writebacks (Count)
system.cpu.dcache.demandMshrMisses::cpu.data       326252                       # number of demand (read+write) MSHR misses (Count)
system.cpu.dcache.demandMshrMisses::total       326252                       # number of demand (read+write) MSHR misses (Count)
system.cpu.dcache.overallMshrMisses::cpu.data       326252                       # number of overall MSHR misses (Count)
system.cpu.dcache.overallMshrMisses::total       326252                       # number of overall MSHR misses (Count)
system.cpu.dcache.demandMshrMissLatency::cpu.data   9685078000                       # number of demand (read+write) MSHR miss ticks (Tick)
system.cpu.dcache.demandMshrMissLatency::total   9685078000                       # number of demand (read+write) MSHR miss ticks (Tick)
system.cpu.dcache.overallMshrMissLatency::cpu.data   9685078000                       # number of overall MSHR miss ticks (Tick)
system.cpu.dcache.overallMshrMissLatency::total   9685078000                       # number of overall MSHR miss ticks (Tick)
system.cpu.dcache.demandMshrMissRate::cpu.data     0.006417                       # mshr miss ratio for demand accesses (Ratio)
system.cpu.dcache.demandMshrMissRate::total     0.006417                       # mshr miss ratio for demand accesses (Ratio)
system.cpu.dcache.overallMshrMissRate::cpu.data     0.006417                       # mshr miss ratio for overall accesses (Ratio)
system.cpu.dcache.overallMshrMissRate::total     0.006417                       # mshr miss ratio for overall accesses (Ratio)
system.cpu.dcache.demandAvgMshrMissLatency::cpu.data 29685.880853                       # average overall mshr miss latency ((Cycle/Count))
system.cpu.dcache.demandAvgMshrMissLatency::total 29685.880853                       # average overall mshr miss latency ((Cycle/Count))
system.cpu.dcache.overallAvgMshrMissLatency::cpu.data 29685.880853                       # average overall mshr miss latency ((Cycle/Count))
system.cpu.dcache.overallAvgMshrMissLatency::total 29685.880853                       # average overall mshr miss latency ((Cycle/Count))
system.cpu.dcache.replacements                 325740                       # number of replacements (Count)
system.cpu.dcache.ReadReq.hits::cpu.data     46229463                       # number of ReadReq hits (Count)
system.cpu.dcache.ReadReq.hits::total        46229463                       # number of ReadReq hits (Count)
system.cpu.dcache.ReadReq.misses::cpu.data       292944                       # number of ReadReq misses (Count)
system.cpu.dcache.ReadReq.misses::total        292944                       # number of ReadReq misses (Count)
system.cpu.dcache.ReadReq.missLatency::cpu.data   9097558000                       # number of ReadReq miss ticks (Tick)
system.cpu.dcache.ReadReq.missLatency::total   9097558000                       # number of ReadReq miss ticks (Tick)
system.cpu.dcache.ReadReq.accesses::cpu.data     46522407                       # number of ReadReq accesses(hits+misses) (Count)
system.cpu.dcache.ReadReq.accesses::total     46522407                       # number of ReadReq accesses(hits+misses) (Count)
system.cpu.dcache.ReadReq.missRate::cpu.data     0.006297                       # miss rate for ReadReq accesses (Ratio)
system.cpu.dcache.ReadReq.missRate::total     0.006297                       # miss rate for ReadReq accesses (Ratio)
system.cpu.dcache.ReadReq.avgMissLatency::cpu.data 31055.621552                       # average ReadReq miss latency ((Tick/Count))
system.cpu.dcache.ReadReq.avgMissLatency::total 31055.621552                       # average ReadReq miss latency ((Tick/Count))
system.cpu.dcache.ReadReq.mshrMisses::cpu.data       292944                       # number of ReadReq MSHR misses (Count)
system.cpu.dcache.ReadReq.mshrMisses::total       292944                       # number of ReadReq MSHR misses (Count)
system.cpu.dcache.ReadReq.mshrMissLatency::cpu.data   8511670000                       # number of ReadReq MSHR miss ticks (Tick)
system.cpu.dcache.ReadReq.mshrMissLatency::total   8511670000                       # number of ReadReq MSHR miss ticks (Tick)
system.cpu.dcache.ReadReq.mshrMissRate::cpu.data     0.006297                       # mshr miss rate for ReadReq accesses (Ratio)
system.cpu.dcache.ReadReq.mshrMissRate::total     0.006297                       # mshr miss rate for ReadReq accesses (Ratio)
system.cpu.dcache.ReadReq.avgMshrMissLatency::cpu.data 29055.621552                       # average ReadReq mshr miss latency ((Tick/Count))
system.cpu.dcache.ReadReq.avgMshrMissLatency::total 29055.621552                       # average ReadReq mshr miss latency ((Tick/Count))
system.cpu.dcache.WriteReq.hits::cpu.data      4286220                       # number of WriteReq hits (Count)
system.cpu.dcache.WriteReq.hits::total        4286220                       # number of WriteReq hits (Count)
system.cpu.dcache.WriteReq.misses::cpu.data        33308                       # number of WriteReq misses (Count)
system.cpu.dcache.WriteReq.misses::total        33308                       # number of WriteReq misses (Count)
system.cpu.dcache.WriteReq.missLatency::cpu.data   1240024000                       # number of WriteReq miss ticks (Tick)
system.cpu.dcache.WriteReq.missLatency::total   1240024000                       # number of WriteReq miss ticks (Tick)
system.cpu.dcache.WriteReq.accesses::cpu.data      4319528                       # number of WriteReq accesses(hits+misses) (Count)
system.cpu.dcache.WriteReq.accesses::total      4319528                       # number of WriteReq accesses(hits+misses) (Count)
system.cpu.dcache.WriteReq.missRate::cpu.data     0.007711                       # miss rate for WriteReq accesses (Ratio)
system.cpu.dcache.WriteReq.missRate::total     0.007711                       # miss rate for WriteReq accesses (Ratio)
system.cpu.dcache.WriteReq.avgMissLatency::cpu.data 37229.014051                       # average WriteReq miss latency ((Tick/Count))
system.cpu.dcache.WriteReq.avgMissLatency::total 37229.014051                       # average WriteReq miss latency ((Tick/Count))
system.cpu.dcache.WriteReq.mshrMisses::cpu.data        33308                       # number of WriteReq MSHR misses (Count)
system.cpu.dcache.WriteReq.mshrMisses::total        33308                       # number of WriteReq MSHR misses (Count)
system.cpu.dcache.WriteReq.mshrMissLatency::cpu.data   1173408000                       # number of WriteReq MSHR miss ticks (Tick)
system.cpu.dcache.WriteReq.mshrMissLatency::total   1173408000                       # number of WriteReq MSHR miss ticks (Tick)
system.cpu.dcache.WriteReq.mshrMissRate::cpu.data     0.007711                       # mshr miss rate for WriteReq accesses (Ratio)
system.cpu.dcache.WriteReq.mshrMissRate::total     0.007711                       # mshr miss rate for WriteReq accesses (Ratio)
system.cpu.dcache.WriteReq.avgMshrMissLatency::cpu.data 35229.014051                       # average WriteReq mshr miss latency ((Tick/Count))
system.cpu.dcache.WriteReq.avgMshrMissLatency::total 35229.014051                       # average WriteReq mshr miss latency ((Tick/Count))
system.cpu.dcache.power_state.pwrStateResidencyTicks::UNDEFINED 310687746000                       # Cumulative time (in ticks) in various power states (Tick)
system.cpu.dcache.tags.tagsInUse           511.623837                       # Average ticks per tags in use ((Tick/Count))
system.cpu.dcache.tags.totalRefs             50841935                       # Total number of references to valid blocks. (Count)
system.cpu.dcache.tags.sampledRefs             326252                       # Sample count of references to valid blocks. (Count)
system.cpu.dcache.tags.avgRefs             155.836393                       # Average number of references to valid blocks. ((Count/Count))
system.cpu.dcache.tags.warmupTick              222000                       # The tick when the warmup percentage was hit. (Tick)
system.cpu.dcache.tags.occupancies::cpu.data   511.623837                       # Average occupied blocks per tick, per requestor ((Count/Tick))
system.cpu.dcache.tags.avgOccs::cpu.data     0.999265                       # Average percentage of cache occupancy ((Ratio/Tick))
system.cpu.dcache.tags.avgOccs::total        0.999265                       # Average percentage of cache occupancy ((Ratio/Tick))
system.cpu.dcache.tags.occupanciesTaskId::1024          512                       # Occupied blocks per task id (Count)
system.cpu.dcache.tags.ageTaskId_1024::0           26                       # Occupied blocks per task id, per block age (Count)
system.cpu.dcache.tags.ageTaskId_1024::1          124                       # Occupied blocks per task id, per block age (Count)
system.cpu.dcache.tags.ageTaskId_1024::2          285                       # Occupied blocks per task id, per block age (Count)
system.cpu.dcache.tags.ageTaskId_1024::3           77                       # Occupied blocks per task id, per block age (Count)
system.cpu.dcache.tags.ratioOccsTaskId::1024            1                       # Ratio of occupied blocks and all blocks, per task id (Ratio)
system.cpu.dcache.tags.tagAccesses           51168187                       # Number of tag accesses (Count)
system.cpu.dcache.tags.dataAccesses          51168187                       # Number of data accesses (Count)
system.cpu.dcache.tags.power_state.pwrStateResidencyTicks::UNDEFINED 310687746000                       # Cumulative time (in ticks) in various power states (Tick)
system.cpu.exec_context.thread_0.numInsts     99629017                       # Number of instructions committed (Count)
system.cpu.exec_context.thread_0.numOps      99629017                       # Number of ops (including micro ops) committed (Count)
system.cpu.exec_context.thread_0.numIntAluAccesses     99609307                       # Number of integer alu accesses (Count)
system.cpu.exec_context.thread_0.numFpAluAccesses           18                       # Number of float alu accesses (Count)
system.cpu.exec_context.thread_0.numVecAluAccesses            0                       # Number of vector alu accesses (Count)
system.cpu.exec_context.thread_0.numCallsReturns         1779                       # Number of times a function call or return occured (Count)
system.cpu.exec_context.thread_0.numCondCtrlInsts      2176310                       # Number of instructions that are conditional controls (Count)
system.cpu.exec_context.thread_0.numIntInsts     99609307                       # Number of integer instructions (Count)
system.cpu.exec_context.thread_0.numFpInsts           18                       # Number of float instructions (Count)
system.cpu.exec_context.thread_0.numVecInsts            0                       # Number of vector instructions (Count)
system.cpu.exec_context.thread_0.numIntRegReads    135833761                       # Number of times the integer registers were read (Count)
system.cpu.exec_context.thread_0.numIntRegWrites     95298375                       # Number of times the integer registers were written (Count)
system.cpu.exec_context.thread_0.numFpRegReads           18                       # Number of times the floating registers were read (Count)
system.cpu.exec_context.thread_0.numFpRegWrites            0                       # Number of times the floating registers were written (Count)
system.cpu.exec_context.thread_0.numVecRegReads            0                       # Number of times the vector registers were read (Count)
system.cpu.exec_context.thread_0.numVecRegWrites            0                       # Number of times the vector registers were written (Count)
system.cpu.exec_context.thread_0.numVecPredRegReads            0                       # Number of times the predicate registers were read (Count)
system.cpu.exec_context.thread_0.numVecPredRegWrites            0                       # Number of times the predicate registers were written (Count)
system.cpu.exec_context.thread_0.numMiscRegReads            0                       # Number of times the Misc registers were read (Count)
system.cpu.exec_context.thread_0.numMiscRegWrites            0                       # Number of times the Misc registers were written (Count)
system.cpu.exec_context.thread_0.numMemRefs     50841988                       # Number of memory refs (Count)
system.cpu.exec_context.thread_0.numLoadInsts     46522406                       # Number of load instructions (Count)
system.cpu.exec_context.thread_0.numStoreInsts      4319582                       # Number of store instructions (Count)
system.cpu.exec_context.thread_0.numIdleCycles     0.001000                       # Number of idle cycles (Cycle)
system.cpu.exec_context.thread_0.numBusyCycles 310687745.999000                       # Number of busy cycles (Cycle)
system.cpu.exec_context.thread_0.notIdleFraction     1.000000                       # Percentage of non-idle cycles (Ratio)
system.cpu.exec_context.thread_0.idleFraction     0.000000                       # Percentage of idle cycles (Ratio)
system.cpu.exec_context.thread_0.numBranches      2197698                       # Number of branches fetched (Count)
system.cpu.exec_context.thread_0.statExecutedInstType::No_OpClass            0      0.00%      0.00% # Class of executed instruction. (Count)
system.cpu.exec_context.thread_0.statExecutedInstType::IntAlu     48787095     48.97%     48.97% # Class of executed instruction. (Count)
system.cpu.exec_context.thread_0.statExecutedInstType::IntMult            0      0.00%     48.97% # Class of executed instruction. (Count)
system.cpu.exec_context.thread_0.statExecutedInstType::IntDiv            0      0.00%     48.97% # Class of executed instruction. (Count)
system.cpu.exec_context.thread_0.statExecutedInstType::FloatAdd            0      0.00%     48.97% # Class of executed instruction. (Count)
system.cpu.exec_context.thread_0.statExecutedInstType::FloatCmp            0      0.00%     48.97% # Class of executed instruction. (Count)
system.cpu.exec_context.thread_0.statExecutedInstType::FloatCvt            0      0.00%     48.97% # Class of executed instruction. (Count)
system.cpu.exec_context.thread_0.statExecutedInstType::FloatMult            0      0.00%     48.97% # Class of executed instruction. (Count)
system.cpu.exec_context.thread_0.statExecutedInstType::FloatMultAcc            0      0.00%     48.97% # Class of executed instruction. (Count)
system.cpu.exec_context.thread_0.statExecutedInstType::FloatDiv            0      0.00%     48.97% # Class of executed instruction. (Count)
system.cpu.exec_context.thread_0.statExecutedInstType::FloatMisc            0      0.00%     48.97% # Class of executed instruction. (Count)
system.cpu.exec_context.thread_0.statExecutedInstType::FloatSqrt            0      0.00%     48.97% # Class of executed instruction. (Count)
system.cpu.exec_context.thread_0.statExecutedInstType::SimdAdd            0      0.00%     48.97% # Class of executed instruction. (Count)
system.cpu.exec_context.thread_0.statExecutedInstType::SimdAddAcc            0      0.00%     48.97% # Class of executed instruction. (Count)
system.cpu.exec_context.thread_0.statExecutedInstType::SimdAlu            0      0.00%     48.97% # Class of executed instruction. (Count)
system.cpu.exec_context.thread_0.statExecutedInstType::SimdCmp            0      0.00%     48.97% # Class of executed instruction. (Count)
system.cpu.exec_context.thread_0.statExecutedInstType::SimdCvt            0      0.00%     48.97% # Class of executed instruction. (Count)
system.cpu.exec_context.thread_0.statExecutedInstType::SimdMisc            0      0.00%     48.97% # Class of executed instruction. (Count)
system.cpu.exec_context.thread_0.statExecutedInstType::SimdMult            0      0.00%     48.97% # Class of executed instruction. (Count)
system.cpu.exec_context.thread_0.statExecutedInstType::SimdMultAcc            0      0.00%     48.97% # Class of executed instruction. (Count)
system.cpu.exec_context.thread_0.statExecutedInstType::SimdShift            0      0.00%     48.97% # Class of executed instruction. (Count)
system.cpu.exec_context.thread_0.statExecutedInstType::SimdShiftAcc            0      0.00%     48.97% # Class of executed instruction. (Count)
system.cpu.exec_context.thread_0.statExecutedInstType::SimdDiv            0      0.00%     48.97% # Class of executed instruction. (Count)
system.cpu.exec_context.thread_0.statExecutedInstType::SimdSqrt            0      0.00%     48.97% # Class of executed instruction. (Count)
system.cpu.exec_context.thread_0.statExecutedInstType::SimdFloatAdd            0      0.00%     48.97% # Class of executed instruction. (Count)
system.cpu.exec_context.thread_0.statExecutedInstType::SimdFloatAlu            0      0.00%     48.97% # Class of executed instruction. (Count)
system.cpu.exec_context.thread_0.statExecutedInstType::SimdFloatCmp            0      0.00%     48.97% # Class of executed instruction. (Count)
system.cpu.exec_context.thread_0.statExecutedInstType::SimdFloatCvt            0      0.00%     48.97% # Class of executed instruction. (Count)
system.cpu.exec_context.thread_0.statExecutedInstType::SimdFloatDiv            0      0.00%     48.97% # Class of executed instruction. (Count)
system.cpu.exec_context.thread_0.statExecutedInstType::SimdFloatMisc            0      0.00%     48.97% # Class of executed instruction. (Count)
system.cpu.exec_context.thread_0.statExecutedInstType::SimdFloatMult            0      0.00%     48.97% # Class of executed instruction. (Count)
system.cpu.exec_context.thread_0.statExecutedInstType::SimdFloatMultAcc            0      0.00%     48.97% # Class of executed instruction. (Count)
system.cpu.exec_context.thread_0.statExecutedInstType::SimdFloatSqrt            0      0.00%     48.97% # Class of executed instruction. (Count)
system.cpu.exec_context.thread_0.statExecutedInstType::SimdReduceAdd            0      0.00%     48.97% # Class of executed instruction. (Count)
system.cpu.exec_context.thread_0.statExecutedInstType::SimdReduceAlu            0      0.00%     48.97% # Class of executed instruction. (Count)
system.cpu.exec_context.thread_0.statExecutedInstType::SimdReduceCmp            0      0.00%     48.97% # Class of executed instruction. (Count)
system.cpu.exec_context.thread_0.statExecutedInstType::SimdFloatReduceAdd            0      0.00%     48.97% # Class of executed instruction. (Count)
system.cpu.exec_context.thread_0.statExecutedInstType::SimdFloatReduceCmp            0      0.00%     48.97% # Class of executed instruction. (Count)
system.cpu.exec_context.thread_0.statExecutedInstType::SimdAes            0      0.00%     48.97% # Class of executed instruction. (Count)
system.cpu.exec_context.thread_0.statExecutedInstType::SimdAesMix            0      0.00%     48.97% # Class of executed instruction. (Count)
system.cpu.exec_context.thread_0.statExecutedInstType::SimdSha1Hash            0      0.00%     48.97% # Class of executed instruction. (Count)
system.cpu.exec_context.thread_0.statExecutedInstType::SimdSha1Hash2            0      0.00%     48.97% # Class of executed instruction. (Count)
system.cpu.exec_context.thread_0.statExecutedInstType::SimdSha256Hash            0      0.00%     48.97% # Class of executed instruction. (Count)
system.cpu.exec_context.thread_0.statExecutedInstType::SimdSha256Hash2            0      0.00%     48.97% # Class of executed instruction. (Count)
system.cpu.exec_context.thread_0.statExecutedInstType::SimdShaSigma2            0      0.00%     48.97% # Class of executed instruction. (Count)
system.cpu.exec_context.thread_0.statExecutedInstType::SimdShaSigma3            0      0.00%     48.97% # Class of executed instruction. (Count)
system.cpu.exec_context.thread_0.statExecutedInstType::SimdPredAlu            0      0.00%     48.97% # Class of executed instruction. (Count)
system.cpu.exec_context.thread_0.statExecutedInstType::MemRead     46522406     46.70%     95.66% # Class of executed instruction. (Count)
system.cpu.exec_context.thread_0.statExecutedInstType::MemWrite      4319564      4.34%    100.00% # Class of executed instruction. (Count)
system.cpu.exec_context.thread_0.statExecutedInstType::FloatMemRead            0      0.00%    100.00% # Class of executed instruction. (Count)
system.cpu.exec_context.thread_0.statExecutedInstType::FloatMemWrite           18      0.00%    100.00% # Class of executed instruction. (Count)
system.cpu.exec_context.thread_0.statExecutedInstType::IprAccess            0      0.00%    100.00% # Class of executed instruction. (Count)
system.cpu.exec_context.thread_0.statExecutedInstType::InstPrefetch            0      0.00%    100.00% # Class of executed instruction. (Count)
system.cpu.exec_context.thread_0.statExecutedInstType::total     99629083                       # Class of executed instruction. (Count)
system.cpu.icache.demandHits::cpu.inst       99628430                       # number of demand (read+write) hits (Count)
system.cpu.icache.demandHits::total          99628430                       # number of demand (read+write) hits (Count)
system.cpu.icache.overallHits::cpu.inst      99628430                       # number of overall hits (Count)
system.cpu.icache.overallHits::total         99628430                       # number of overall hits (Count)
system.cpu.icache.demandMisses::cpu.inst          653                       # number of demand (read+write) misses (Count)
system.cpu.icache.demandMisses::total             653                       # number of demand (read+write) misses (Count)
system.cpu.icache.overallMisses::cpu.inst          653                       # number of overall misses (Count)
system.cpu.icache.overallMisses::total            653                       # number of overall misses (Count)
system.cpu.icache.demandMissLatency::cpu.inst     62047000                       # number of demand (read+write) miss ticks (Tick)
system.cpu.icache.demandMissLatency::total     62047000                       # number of demand (read+write) miss ticks (Tick)
system.cpu.icache.overallMissLatency::cpu.inst     62047000                       # number of overall miss ticks (Tick)
system.cpu.icache.overallMissLatency::total     62047000                       # number of overall miss ticks (Tick)
system.cpu.icache.demandAccesses::cpu.inst     99629083                       # number of demand (read+write) accesses (Count)
system.cpu.icache.demandAccesses::total      99629083                       # number of demand (read+write) accesses (Count)
system.cpu.icache.overallAccesses::cpu.inst     99629083                       # number of overall (read+write) accesses (Count)
system.cpu.icache.overallAccesses::total     99629083                       # number of overall (read+write) accesses (Count)
system.cpu.icache.demandMissRate::cpu.inst     0.000007                       # miss rate for demand accesses (Ratio)
system.cpu.icache.demandMissRate::total      0.000007                       # miss rate for demand accesses (Ratio)
system.cpu.icache.overallMissRate::cpu.inst     0.000007                       # miss rate for overall accesses (Ratio)
system.cpu.icache.overallMissRate::total     0.000007                       # miss rate for overall accesses (Ratio)
system.cpu.icache.demandAvgMissLatency::cpu.inst 95018.376723                       # average overall miss latency ((Cycle/Count))
system.cpu.icache.demandAvgMissLatency::total 95018.376723                       # average overall miss latency ((Cycle/Count))
system.cpu.icache.overallAvgMissLatency::cpu.inst 95018.376723                       # average overall miss latency ((Cycle/Count))
system.cpu.icache.overallAvgMissLatency::total 95018.376723                       # average overall miss latency ((Cycle/Count))
system.cpu.icache.blockedCycles::no_mshrs            0                       # number of cycles access was blocked (Cycle)
system.cpu.icache.blockedCycles::no_targets            0                       # number of cycles access was blocked (Cycle)
system.cpu.icache.blockedCauses::no_mshrs            0                       # number of times access was blocked (Count)
system.cpu.icache.blockedCauses::no_targets            0                       # number of times access was blocked (Count)
system.cpu.icache.avgBlocked::no_mshrs            nan                       # average number of cycles each access was blocked ((Cycle/Count))
system.cpu.icache.avgBlocked::no_targets          nan                       # average number of cycles each access was blocked ((Cycle/Count))
system.cpu.icache.demandMshrMisses::cpu.inst          653                       # number of demand (read+write) MSHR misses (Count)
system.cpu.icache.demandMshrMisses::total          653                       # number of demand (read+write) MSHR misses (Count)
system.cpu.icache.overallMshrMisses::cpu.inst          653                       # number of overall MSHR misses (Count)
system.cpu.icache.overallMshrMisses::total          653                       # number of overall MSHR misses (Count)
system.cpu.icache.demandMshrMissLatency::cpu.inst     60741000                       # number of demand (read+write) MSHR miss ticks (Tick)
system.cpu.icache.demandMshrMissLatency::total     60741000                       # number of demand (read+write) MSHR miss ticks (Tick)
system.cpu.icache.overallMshrMissLatency::cpu.inst     60741000                       # number of overall MSHR miss ticks (Tick)
system.cpu.icache.overallMshrMissLatency::total     60741000                       # number of overall MSHR miss ticks (Tick)
system.cpu.icache.demandMshrMissRate::cpu.inst     0.000007                       # mshr miss ratio for demand accesses (Ratio)
system.cpu.icache.demandMshrMissRate::total     0.000007                       # mshr miss ratio for demand accesses (Ratio)
system.cpu.icache.overallMshrMissRate::cpu.inst     0.000007                       # mshr miss ratio for overall accesses (Ratio)
system.cpu.icache.overallMshrMissRate::total     0.000007                       # mshr miss ratio for overall accesses (Ratio)
system.cpu.icache.demandAvgMshrMissLatency::cpu.inst 93018.376723                       # average overall mshr miss latency ((Cycle/Count))
system.cpu.icache.demandAvgMshrMissLatency::total 93018.376723                       # average overall mshr miss latency ((Cycle/Count))
system.cpu.icache.overallAvgMshrMissLatency::cpu.inst 93018.376723                       # average overall mshr miss latency ((Cycle/Count))
system.cpu.icache.overallAvgMshrMissLatency::total 93018.376723                       # average overall mshr miss latency ((Cycle/Count))
system.cpu.icache.replacements                    421                       # number of replacements (Count)
system.cpu.icache.ReadReq.hits::cpu.inst     99628430                       # number of ReadReq hits (Count)
system.cpu.icache.ReadReq.hits::total        99628430                       # number of ReadReq hits (Count)
system.cpu.icache.ReadReq.misses::cpu.inst          653                       # number of ReadReq misses (Count)
system.cpu.icache.ReadReq.misses::total           653                       # number of ReadReq misses (Count)
system.cpu.icache.ReadReq.missLatency::cpu.inst     62047000                       # number of ReadReq miss ticks (Tick)
system.cpu.icache.ReadReq.missLatency::total     62047000                       # number of ReadReq miss ticks (Tick)
system.cpu.icache.ReadReq.accesses::cpu.inst     99629083                       # number of ReadReq accesses(hits+misses) (Count)
system.cpu.icache.ReadReq.accesses::total     99629083                       # number of ReadReq accesses(hits+misses) (Count)
system.cpu.icache.ReadReq.missRate::cpu.inst     0.000007                       # miss rate for ReadReq accesses (Ratio)
system.cpu.icache.ReadReq.missRate::total     0.000007                       # miss rate for ReadReq accesses (Ratio)
system.cpu.icache.ReadReq.avgMissLatency::cpu.inst 95018.376723                       # average ReadReq miss latency ((Tick/Count))
system.cpu.icache.ReadReq.avgMissLatency::total 95018.376723                       # average ReadReq miss latency ((Tick/Count))
system.cpu.icache.ReadReq.mshrMisses::cpu.inst          653                       # number of ReadReq MSHR misses (Count)
system.cpu.icache.ReadReq.mshrMisses::total          653                       # number of ReadReq MSHR misses (Count)
system.cpu.icache.ReadReq.mshrMissLatency::cpu.inst     60741000                       # number of ReadReq MSHR miss ticks (Tick)
system.cpu.icache.ReadReq.mshrMissLatency::total     60741000                       # number of ReadReq MSHR miss ticks (Tick)
system.cpu.icache.ReadReq.mshrMissRate::cpu.inst     0.000007                       # mshr miss rate for ReadReq accesses (Ratio)
system.cpu.icache.ReadReq.mshrMissRate::total     0.000007                       # mshr miss rate for ReadReq accesses (Ratio)
system.cpu.icache.ReadReq.avgMshrMissLatency::cpu.inst 93018.376723                       # average ReadReq mshr miss latency ((Tick/Count))
system.cpu.icache.ReadReq.avgMshrMissLatency::total 93018.376723                       # average ReadReq mshr miss latency ((Tick/Count))
system.cpu.icache.power_state.pwrStateResidencyTicks::UNDEFINED 310687746000                       # Cumulative time (in ticks) in various power states (Tick)
system.cpu.icache.tags.tagsInUse           220.959614                       # Average ticks per tags in use ((Tick/Count))
system.cpu.icache.tags.totalRefs             99629083                       # Total number of references to valid blocks. (Count)
system.cpu.icache.tags.sampledRefs                653                       # Sample count of references to valid blocks. (Count)
system.cpu.icache.tags.avgRefs           152571.336907                       # Average number of references to valid blocks. ((Count/Count))
system.cpu.icache.tags.warmupTick              107000                       # The tick when the warmup percentage was hit. (Tick)
system.cpu.icache.tags.occupancies::cpu.inst   220.959614                       # Average occupied blocks per tick, per requestor ((Count/Tick))
system.cpu.icache.tags.avgOccs::cpu.inst     0.863123                       # Average percentage of cache occupancy ((Ratio/Tick))
system.cpu.icache.tags.avgOccs::total        0.863123                       # Average percentage of cache occupancy ((Ratio/Tick))
system.cpu.icache.tags.occupanciesTaskId::1024          232                       # Occupied blocks per task id (Count)
system.cpu.icache.tags.ageTaskId_1024::0           48                       # Occupied blocks per task id, per block age (Count)
system.cpu.icache.tags.ageTaskId_1024::1           38                       # Occupied blocks per task id, per block age (Count)
system.cpu.icache.tags.ageTaskId_1024::2            9                       # Occupied blocks per task id, per block age (Count)
system.cpu.icache.tags.ageTaskId_1024::4          137                       # Occupied blocks per task id, per block age (Count)
system.cpu.icache.tags.ratioOccsTaskId::1024     0.906250                       # Ratio of occupied blocks and all blocks, per task id (Ratio)
system.cpu.icache.tags.tagAccesses           99629736                       # Number of tag accesses (Count)
system.cpu.icache.tags.dataAccesses          99629736                       # Number of data accesses (Count)
system.cpu.icache.tags.power_state.pwrStateResidencyTicks::UNDEFINED 310687746000                       # Cumulative time (in ticks) in various power states (Tick)
system.cpu.power_state.pwrStateResidencyTicks::ON 310687746000                       # Cumulative time (in ticks) in various power states (Tick)
system.cpu.thread_0.numInsts                        0                       # Number of Instructions committed (Count)
system.cpu.thread_0.numOps                          0                       # Number of Ops committed (Count)
system.cpu.thread_0.numMemRefs                      0                       # Number of Memory References (Count)
system.cpu.workload.numSyscalls                    12                       # Number of system calls (Count)
system.l2bus.transDist::ReadResp               293597                       # Transaction distribution (Count)
system.l2bus.transDist::WritebackDirty         168540                       # Transaction distribution (Count)
system.l2bus.transDist::CleanEvict             162841                       # Transaction distribution (Count)
system.l2bus.transDist::ReadExReq               33308                       # Transaction distribution (Count)
system.l2bus.transDist::ReadExResp              33308                       # Transaction distribution (Count)
system.l2bus.transDist::ReadSharedReq          293597                       # Transaction distribution (Count)
system.l2bus.pktCount_system.cpu.icache.mem_side_port::system.l2cache.cpu_side_port         1727                       # Packet count per connected requestor and responder (Count)
system.l2bus.pktCount_system.cpu.dcache.mem_side_port::system.l2cache.cpu_side_port       978244                       # Packet count per connected requestor and responder (Count)
system.l2bus.pktCount::total                   979971                       # Packet count per connected requestor and responder (Count)
system.l2bus.pktSize_system.cpu.icache.mem_side_port::system.l2cache.cpu_side_port        41792                       # Cumulative packet size per connected requestor and responder (Byte)
system.l2bus.pktSize_system.cpu.dcache.mem_side_port::system.l2cache.cpu_side_port     31417856                       # Cumulative packet size per connected requestor and responder (Byte)
system.l2bus.pktSize::total                  31459648                       # Cumulative packet size per connected requestor and responder (Byte)
system.l2bus.snoops                              5220                       # Total snoops (Count)
system.l2bus.snoopTraffic                      248832                       # Total snoop traffic (Byte)
system.l2bus.snoopFanout::samples              332125                       # Request fanout histogram (Count)
system.l2bus.snoopFanout::mean               0.000732                       # Request fanout histogram (Count)
system.l2bus.snoopFanout::stdev              0.027039                       # Request fanout histogram (Count)
system.l2bus.snoopFanout::underflows                0      0.00%      0.00% # Request fanout histogram (Count)
system.l2bus.snoopFanout::0                    331882     99.93%     99.93% # Request fanout histogram (Count)
system.l2bus.snoopFanout::1                       243      0.07%    100.00% # Request fanout histogram (Count)
system.l2bus.snoopFanout::2                         0      0.00%    100.00% # Request fanout histogram (Count)
system.l2bus.snoopFanout::overflows                 0      0.00%    100.00% # Request fanout histogram (Count)
system.l2bus.snoopFanout::min_value                 0                       # Request fanout histogram (Count)
system.l2bus.snoopFanout::max_value                 1                       # Request fanout histogram (Count)
system.l2bus.snoopFanout::total                332125                       # Request fanout histogram (Count)
system.l2bus.power_state.pwrStateResidencyTicks::UNDEFINED 310687746000                       # Cumulative time (in ticks) in various power states (Tick)
system.l2bus.reqLayer0.occupancy            982370000                       # Layer occupancy (ticks) (Tick)
system.l2bus.reqLayer0.utilization                0.0                       # Layer utilization (Ratio)
system.l2bus.respLayer0.occupancy             1959000                       # Layer occupancy (ticks) (Tick)
system.l2bus.respLayer0.utilization               0.0                       # Layer utilization (Ratio)
system.l2bus.respLayer1.occupancy           978756000                       # Layer occupancy (ticks) (Tick)
system.l2bus.respLayer1.utilization               0.0                       # Layer utilization (Ratio)
system.l2bus.snoop_filter.totRequests          653066                       # Total number of requests made to the snoop filter. (Count)
system.l2bus.snoop_filter.hitSingleRequests       326161                       # Number of requests hitting in the snoop filter with a single holder of the requested data. (Count)
system.l2bus.snoop_filter.hitMultiRequests            2                       # Number of requests hitting in the snoop filter with multiple (>1) holders of the requested data. (Count)
system.l2bus.snoop_filter.totSnoops               241                       # Total number of snoops made to the snoop filter. (Count)
system.l2bus.snoop_filter.hitSingleSnoops          241                       # Number of snoops hitting in the snoop filter with a single holder of the requested data. (Count)
system.l2bus.snoop_filter.hitMultiSnoops            0                       # Number of snoops hitting in the snoop filter with multiple (>1) holders of the requested data. (Count)
system.l2cache.demandHits::cpu.inst                74                       # number of demand (read+write) hits (Count)
system.l2cache.demandHits::cpu.data            319565                       # number of demand (read+write) hits (Count)
system.l2cache.demandHits::total               319639                       # number of demand (read+write) hits (Count)
system.l2cache.overallHits::cpu.inst               74                       # number of overall hits (Count)
system.l2cache.overallHits::cpu.data           319565                       # number of overall hits (Count)
system.l2cache.overallHits::total              319639                       # number of overall hits (Count)
system.l2cache.demandMisses::cpu.inst             579                       # number of demand (read+write) misses (Count)
system.l2cache.demandMisses::cpu.data            6687                       # number of demand (read+write) misses (Count)
system.l2cache.demandMisses::total               7266                       # number of demand (read+write) misses (Count)
system.l2cache.overallMisses::cpu.inst            579                       # number of overall misses (Count)
system.l2cache.overallMisses::cpu.data           6687                       # number of overall misses (Count)
system.l2cache.overallMisses::total              7266                       # number of overall misses (Count)
system.l2cache.demandMissLatency::cpu.inst     57225000                       # number of demand (read+write) miss ticks (Tick)
system.l2cache.demandMissLatency::cpu.data    669440000                       # number of demand (read+write) miss ticks (Tick)
system.l2cache.demandMissLatency::total     726665000                       # number of demand (read+write) miss ticks (Tick)
system.l2cache.overallMissLatency::cpu.inst     57225000                       # number of overall miss ticks (Tick)
system.l2cache.overallMissLatency::cpu.data    669440000                       # number of overall miss ticks (Tick)
system.l2cache.overallMissLatency::total    726665000                       # number of overall miss ticks (Tick)
system.l2cache.demandAccesses::cpu.inst           653                       # number of demand (read+write) accesses (Count)
system.l2cache.demandAccesses::cpu.data        326252                       # number of demand (read+write) accesses (Count)
system.l2cache.demandAccesses::total           326905                       # number of demand (read+write) accesses (Count)
system.l2cache.overallAccesses::cpu.inst          653                       # number of overall (read+write) accesses (Count)
system.l2cache.overallAccesses::cpu.data       326252                       # number of overall (read+write) accesses (Count)
system.l2cache.overallAccesses::total          326905                       # number of overall (read+write) accesses (Count)
system.l2cache.demandMissRate::cpu.inst      0.886677                       # miss rate for demand accesses (Ratio)
system.l2cache.demandMissRate::cpu.data      0.020496                       # miss rate for demand accesses (Ratio)
system.l2cache.demandMissRate::total         0.022227                       # miss rate for demand accesses (Ratio)
system.l2cache.overallMissRate::cpu.inst     0.886677                       # miss rate for overall accesses (Ratio)
system.l2cache.overallMissRate::cpu.data     0.020496                       # miss rate for overall accesses (Ratio)
system.l2cache.overallMissRate::total        0.022227                       # miss rate for overall accesses (Ratio)
system.l2cache.demandAvgMissLatency::cpu.inst 98834.196891                       # average overall miss latency ((Cycle/Count))
system.l2cache.demandAvgMissLatency::cpu.data 100110.662479                       # average overall miss latency ((Cycle/Count))
system.l2cache.demandAvgMissLatency::total 100008.945775                       # average overall miss latency ((Cycle/Count))
system.l2cache.overallAvgMissLatency::cpu.inst 98834.196891                       # average overall miss latency ((Cycle/Count))
system.l2cache.overallAvgMissLatency::cpu.data 100110.662479                       # average overall miss latency ((Cycle/Count))
system.l2cache.overallAvgMissLatency::total 100008.945775                       # average overall miss latency ((Cycle/Count))
system.l2cache.blockedCycles::no_mshrs              0                       # number of cycles access was blocked (Cycle)
system.l2cache.blockedCycles::no_targets            0                       # number of cycles access was blocked (Cycle)
system.l2cache.blockedCauses::no_mshrs              0                       # number of times access was blocked (Count)
system.l2cache.blockedCauses::no_targets            0                       # number of times access was blocked (Count)
system.l2cache.avgBlocked::no_mshrs               nan                       # average number of cycles each access was blocked ((Cycle/Count))
system.l2cache.avgBlocked::no_targets             nan                       # average number of cycles each access was blocked ((Cycle/Count))
system.l2cache.writebacks::writebacks            3888                       # number of writebacks (Count)
system.l2cache.writebacks::total                 3888                       # number of writebacks (Count)
system.l2cache.demandMshrMisses::cpu.inst          579                       # number of demand (read+write) MSHR misses (Count)
system.l2cache.demandMshrMisses::cpu.data         6687                       # number of demand (read+write) MSHR misses (Count)
system.l2cache.demandMshrMisses::total           7266                       # number of demand (read+write) MSHR misses (Count)
system.l2cache.overallMshrMisses::cpu.inst          579                       # number of overall MSHR misses (Count)
system.l2cache.overallMshrMisses::cpu.data         6687                       # number of overall MSHR misses (Count)
system.l2cache.overallMshrMisses::total          7266                       # number of overall MSHR misses (Count)
system.l2cache.demandMshrMissLatency::cpu.inst     45645000                       # number of demand (read+write) MSHR miss ticks (Tick)
system.l2cache.demandMshrMissLatency::cpu.data    535700000                       # number of demand (read+write) MSHR miss ticks (Tick)
system.l2cache.demandMshrMissLatency::total    581345000                       # number of demand (read+write) MSHR miss ticks (Tick)
system.l2cache.overallMshrMissLatency::cpu.inst     45645000                       # number of overall MSHR miss ticks (Tick)
system.l2cache.overallMshrMissLatency::cpu.data    535700000                       # number of overall MSHR miss ticks (Tick)
system.l2cache.overallMshrMissLatency::total    581345000                       # number of overall MSHR miss ticks (Tick)
system.l2cache.demandMshrMissRate::cpu.inst     0.886677                       # mshr miss ratio for demand accesses (Ratio)
system.l2cache.demandMshrMissRate::cpu.data     0.020496                       # mshr miss ratio for demand accesses (Ratio)
system.l2cache.demandMshrMissRate::total     0.022227                       # mshr miss ratio for demand accesses (Ratio)
system.l2cache.overallMshrMissRate::cpu.inst     0.886677                       # mshr miss ratio for overall accesses (Ratio)
system.l2cache.overallMshrMissRate::cpu.data     0.020496                       # mshr miss ratio for overall accesses (Ratio)
system.l2cache.overallMshrMissRate::total     0.022227                       # mshr miss ratio for overall accesses (Ratio)
system.l2cache.demandAvgMshrMissLatency::cpu.inst 78834.196891                       # average overall mshr miss latency ((Cycle/Count))
system.l2cache.demandAvgMshrMissLatency::cpu.data 80110.662479                       # average overall mshr miss latency ((Cycle/Count))
system.l2cache.demandAvgMshrMissLatency::total 80008.945775                       # average overall mshr miss latency ((Cycle/Count))
system.l2cache.overallAvgMshrMissLatency::cpu.inst 78834.196891                       # average overall mshr miss latency ((Cycle/Count))
system.l2cache.overallAvgMshrMissLatency::cpu.data 80110.662479                       # average overall mshr miss latency ((Cycle/Count))
system.l2cache.overallAvgMshrMissLatency::total 80008.945775                       # average overall mshr miss latency ((Cycle/Count))
system.l2cache.replacements                      5220                       # number of replacements (Count)
system.l2cache.CleanEvict.mshrMisses::writebacks          102                       # number of CleanEvict MSHR misses (Count)
system.l2cache.CleanEvict.mshrMisses::total          102                       # number of CleanEvict MSHR misses (Count)
system.l2cache.CleanEvict.mshrMissRate::writebacks          inf                       # mshr miss rate for CleanEvict accesses (Ratio)
system.l2cache.CleanEvict.mshrMissRate::total          inf                       # mshr miss rate for CleanEvict accesses (Ratio)
system.l2cache.ReadExReq.hits::cpu.data         29740                       # number of ReadExReq hits (Count)
system.l2cache.ReadExReq.hits::total            29740                       # number of ReadExReq hits (Count)
system.l2cache.ReadExReq.misses::cpu.data         3568                       # number of ReadExReq misses (Count)
system.l2cache.ReadExReq.misses::total           3568                       # number of ReadExReq misses (Count)
system.l2cache.ReadExReq.missLatency::cpu.data    349330000                       # number of ReadExReq miss ticks (Tick)
system.l2cache.ReadExReq.missLatency::total    349330000                       # number of ReadExReq miss ticks (Tick)
system.l2cache.ReadExReq.accesses::cpu.data        33308                       # number of ReadExReq accesses(hits+misses) (Count)
system.l2cache.ReadExReq.accesses::total        33308                       # number of ReadExReq accesses(hits+misses) (Count)
system.l2cache.ReadExReq.missRate::cpu.data     0.107121                       # miss rate for ReadExReq accesses (Ratio)
system.l2cache.ReadExReq.missRate::total     0.107121                       # miss rate for ReadExReq accesses (Ratio)
system.l2cache.ReadExReq.avgMissLatency::cpu.data 97906.390135                       # average ReadExReq miss latency ((Tick/Count))
system.l2cache.ReadExReq.avgMissLatency::total 97906.390135                       # average ReadExReq miss latency ((Tick/Count))
system.l2cache.ReadExReq.mshrMisses::cpu.data         3568                       # number of ReadExReq MSHR misses (Count)
system.l2cache.ReadExReq.mshrMisses::total         3568                       # number of ReadExReq MSHR misses (Count)
system.l2cache.ReadExReq.mshrMissLatency::cpu.data    277970000                       # number of ReadExReq MSHR miss ticks (Tick)
system.l2cache.ReadExReq.mshrMissLatency::total    277970000                       # number of ReadExReq MSHR miss ticks (Tick)
system.l2cache.ReadExReq.mshrMissRate::cpu.data     0.107121                       # mshr miss rate for ReadExReq accesses (Ratio)
system.l2cache.ReadExReq.mshrMissRate::total     0.107121                       # mshr miss rate for ReadExReq accesses (Ratio)
system.l2cache.ReadExReq.avgMshrMissLatency::cpu.data 77906.390135                       # average ReadExReq mshr miss latency ((Tick/Count))
system.l2cache.ReadExReq.avgMshrMissLatency::total 77906.390135                       # average ReadExReq mshr miss latency ((Tick/Count))
system.l2cache.ReadSharedReq.hits::cpu.inst           74                       # number of ReadSharedReq hits (Count)
system.l2cache.ReadSharedReq.hits::cpu.data       289825                       # number of ReadSharedReq hits (Count)
system.l2cache.ReadSharedReq.hits::total       289899                       # number of ReadSharedReq hits (Count)
system.l2cache.ReadSharedReq.misses::cpu.inst          579                       # number of ReadSharedReq misses (Count)
system.l2cache.ReadSharedReq.misses::cpu.data         3119                       # number of ReadSharedReq misses (Count)
system.l2cache.ReadSharedReq.misses::total         3698                       # number of ReadSharedReq misses (Count)
system.l2cache.ReadSharedReq.missLatency::cpu.inst     57225000                       # number of ReadSharedReq miss ticks (Tick)
system.l2cache.ReadSharedReq.missLatency::cpu.data    320110000                       # number of ReadSharedReq miss ticks (Tick)
system.l2cache.ReadSharedReq.missLatency::total    377335000                       # number of ReadSharedReq miss ticks (Tick)
system.l2cache.ReadSharedReq.accesses::cpu.inst          653                       # number of ReadSharedReq accesses(hits+misses) (Count)
system.l2cache.ReadSharedReq.accesses::cpu.data       292944                       # number of ReadSharedReq accesses(hits+misses) (Count)
system.l2cache.ReadSharedReq.accesses::total       293597                       # number of ReadSharedReq accesses(hits+misses) (Count)
system.l2cache.ReadSharedReq.missRate::cpu.inst     0.886677                       # miss rate for ReadSharedReq accesses (Ratio)
system.l2cache.ReadSharedReq.missRate::cpu.data     0.010647                       # miss rate for ReadSharedReq accesses (Ratio)
system.l2cache.ReadSharedReq.missRate::total     0.012595                       # miss rate for ReadSharedReq accesses (Ratio)
system.l2cache.ReadSharedReq.avgMissLatency::cpu.inst 98834.196891                       # average ReadSharedReq miss latency ((Tick/Count))
system.l2cache.ReadSharedReq.avgMissLatency::cpu.data 102632.253928                       # average ReadSharedReq miss latency ((Tick/Count))
system.l2cache.ReadSharedReq.avgMissLatency::total 102037.587885                       # average ReadSharedReq miss latency ((Tick/Count))
system.l2cache.ReadSharedReq.mshrMisses::cpu.inst          579                       # number of ReadSharedReq MSHR misses (Count)
system.l2cache.ReadSharedReq.mshrMisses::cpu.data         3119                       # number of ReadSharedReq MSHR misses (Count)
system.l2cache.ReadSharedReq.mshrMisses::total         3698                       # number of ReadSharedReq MSHR misses (Count)
system.l2cache.ReadSharedReq.mshrMissLatency::cpu.inst     45645000                       # number of ReadSharedReq MSHR miss ticks (Tick)
system.l2cache.ReadSharedReq.mshrMissLatency::cpu.data    257730000                       # number of ReadSharedReq MSHR miss ticks (Tick)
system.l2cache.ReadSharedReq.mshrMissLatency::total    303375000                       # number of ReadSharedReq MSHR miss ticks (Tick)
system.l2cache.ReadSharedReq.mshrMissRate::cpu.inst     0.886677                       # mshr miss rate for ReadSharedReq accesses (Ratio)
system.l2cache.ReadSharedReq.mshrMissRate::cpu.data     0.010647                       # mshr miss rate for ReadSharedReq accesses (Ratio)
system.l2cache.ReadSharedReq.mshrMissRate::total     0.012595                       # mshr miss rate for ReadSharedReq accesses (Ratio)
system.l2cache.ReadSharedReq.avgMshrMissLatency::cpu.inst 78834.196891                       # average ReadSharedReq mshr miss latency ((Tick/Count))
system.l2cache.ReadSharedReq.avgMshrMissLatency::cpu.data 82632.253928                       # average ReadSharedReq mshr miss latency ((Tick/Count))
system.l2cache.ReadSharedReq.avgMshrMissLatency::total 82037.587885                       # average ReadSharedReq mshr miss latency ((Tick/Count))
system.l2cache.WritebackDirty.hits::writebacks       164652                       # number of WritebackDirty hits (Count)
system.l2cache.WritebackDirty.hits::total       164652                       # number of WritebackDirty hits (Count)
system.l2cache.WritebackDirty.accesses::writebacks       164652                       # number of WritebackDirty accesses(hits+misses) (Count)
system.l2cache.WritebackDirty.accesses::total       164652                       # number of WritebackDirty accesses(hits+misses) (Count)
system.l2cache.power_state.pwrStateResidencyTicks::UNDEFINED 310687746000                       # Cumulative time (in ticks) in various power states (Tick)
system.l2cache.tags.tagsInUse             2045.124514                       # Average ticks per tags in use ((Tick/Count))
system.l2cache.tags.totalRefs                  652962                       # Total number of references to valid blocks. (Count)
system.l2cache.tags.sampledRefs                  7268                       # Sample count of references to valid blocks. (Count)
system.l2cache.tags.avgRefs                 89.840671                       # Average number of references to valid blocks. ((Count/Count))
system.l2cache.tags.warmupTick                  86000                       # The tick when the warmup percentage was hit. (Tick)
system.l2cache.tags.occupancies::writebacks     0.007081                       # Average occupied blocks per tick, per requestor ((Count/Tick))
system.l2cache.tags.occupancies::cpu.inst     6.169634                       # Average occupied blocks per tick, per requestor ((Count/Tick))
system.l2cache.tags.occupancies::cpu.data  2038.947799                       # Average occupied blocks per tick, per requestor ((Count/Tick))
system.l2cache.tags.avgOccs::writebacks      0.000003                       # Average percentage of cache occupancy ((Ratio/Tick))
system.l2cache.tags.avgOccs::cpu.inst        0.003013                       # Average percentage of cache occupancy ((Ratio/Tick))
system.l2cache.tags.avgOccs::cpu.data        0.995580                       # Average percentage of cache occupancy ((Ratio/Tick))
system.l2cache.tags.avgOccs::total           0.998596                       # Average percentage of cache occupancy ((Ratio/Tick))
system.l2cache.tags.occupanciesTaskId::1024         2048                       # Occupied blocks per task id (Count)
system.l2cache.tags.ageTaskId_1024::0              81                       # Occupied blocks per task id, per block age (Count)
system.l2cache.tags.ageTaskId_1024::1              83                       # Occupied blocks per task id, per block age (Count)
system.l2cache.tags.ageTaskId_1024::2             227                       # Occupied blocks per task id, per block age (Count)
system.l2cache.tags.ageTaskId_1024::3              62                       # Occupied blocks per task id, per block age (Count)
system.l2cache.tags.ageTaskId_1024::4            1595                       # Occupied blocks per task id, per block age (Count)
system.l2cache.tags.ratioOccsTaskId::1024            1                       # Ratio of occupied blocks and all blocks, per task id (Ratio)
system.l2cache.tags.tagAccesses              10456292                       # Number of tag accesses (Count)
system.l2cache.tags.dataAccesses             10456292                       # Number of data accesses (Count)
system.l2cache.tags.power_state.pwrStateResidencyTicks::UNDEFINED 310687746000                       # Cumulative time (in ticks) in various power states (Tick)
system.mem_ctrl.avgPriority_writebacks::samples      3888.00                       # Average QoS priority value for accepted requests (Count)
system.mem_ctrl.avgPriority_cpu.inst::samples       579.00                       # Average QoS priority value for accepted requests (Count)
system.mem_ctrl.avgPriority_cpu.data::samples      6669.00                       # Average QoS priority value for accepted requests (Count)
system.mem_ctrl.priorityMinLatency       0.000000018750                       # per QoS priority minimum request to response latency (Second)
system.mem_ctrl.priorityMaxLatency       0.052909110500                       # per QoS priority maximum request to response latency (Second)
system.mem_ctrl.numReadWriteTurnArounds           216                       # Number of turnarounds from READ to WRITE (Count)
system.mem_ctrl.numWriteReadTurnArounds           216                       # Number of turnarounds from WRITE to READ (Count)
system.mem_ctrl.numStayReadState                98171                       # Number of times bus staying in READ state (Count)
system.mem_ctrl.numStayWriteState                3652                       # Number of times bus staying in WRITE state (Count)
system.mem_ctrl.readReqs                         7266                       # Number of read requests accepted (Count)
system.mem_ctrl.writeReqs                        3888                       # Number of write requests accepted (Count)
system.mem_ctrl.readBursts                       7266                       # Number of controller read bursts, including those serviced by the write queue (Count)
system.mem_ctrl.writeBursts                      3888                       # Number of controller write bursts, including those merged in the write queue (Count)
system.mem_ctrl.servicedByWrQ                      18                       # Number of controller read bursts serviced by the write queue (Count)
system.mem_ctrl.mergedWrBursts                      0                       # Number of controller write bursts merged with an existing one (Count)
system.mem_ctrl.neitherReadNorWriteReqs             0                       # Number of requests that are neither read nor write (Count)
system.mem_ctrl.avgRdQLen                        1.00                       # Average read queue length when enqueuing ((Count/Tick))
system.mem_ctrl.avgWrQLen                       24.26                       # Average write queue length when enqueuing ((Count/Tick))
system.mem_ctrl.numRdRetry                          0                       # Number of times read queue was full causing retry (Count)
system.mem_ctrl.numWrRetry                          0                       # Number of times write queue was full causing retry (Count)
system.mem_ctrl.readPktSize::0                      0                       # Read request sizes (log2) (Count)
system.mem_ctrl.readPktSize::1                      0                       # Read request sizes (log2) (Count)
system.mem_ctrl.readPktSize::2                      0                       # Read request sizes (log2) (Count)
system.mem_ctrl.readPktSize::3                      0                       # Read request sizes (log2) (Count)
system.mem_ctrl.readPktSize::4                      0                       # Read request sizes (log2) (Count)
system.mem_ctrl.readPktSize::5                      0                       # Read request sizes (log2) (Count)
system.mem_ctrl.readPktSize::6                   7266                       # Read request sizes (log2) (Count)
system.mem_ctrl.writePktSize::0                     0                       # Write request sizes (log2) (Count)
system.mem_ctrl.writePktSize::1                     0                       # Write request sizes (log2) (Count)
system.mem_ctrl.writePktSize::2                     0                       # Write request sizes (log2) (Count)
system.mem_ctrl.writePktSize::3                     0                       # Write request sizes (log2) (Count)
system.mem_ctrl.writePktSize::4                     0                       # Write request sizes (log2) (Count)
system.mem_ctrl.writePktSize::5                     0                       # Write request sizes (log2) (Count)
system.mem_ctrl.writePktSize::6                  3888                       # Write request sizes (log2) (Count)
system.mem_ctrl.rdQLenPdf::0                     7247                       # What read queue length does an incoming req see (Count)
system.mem_ctrl.rdQLenPdf::1                        1                       # What read queue length does an incoming req see (Count)
system.mem_ctrl.rdQLenPdf::2                        0                       # What read queue length does an incoming req see (Count)
system.mem_ctrl.rdQLenPdf::3                        0                       # What read queue length does an incoming req see (Count)
system.mem_ctrl.rdQLenPdf::4                        0                       # What read queue length does an incoming req see (Count)
system.mem_ctrl.rdQLenPdf::5                        0                       # What read queue length does an incoming req see (Count)
system.mem_ctrl.rdQLenPdf::6                        0                       # What read queue length does an incoming req see (Count)
system.mem_ctrl.rdQLenPdf::7                        0                       # What read queue length does an incoming req see (Count)
system.mem_ctrl.rdQLenPdf::8                        0                       # What read queue length does an incoming req see (Count)
system.mem_ctrl.rdQLenPdf::9                        0                       # What read queue length does an incoming req see (Count)
system.mem_ctrl.rdQLenPdf::10                       0                       # What read queue length does an incoming req see (Count)
system.mem_ctrl.rdQLenPdf::11                       0                       # What read queue length does an incoming req see (Count)
system.mem_ctrl.rdQLenPdf::12                       0                       # What read queue length does an incoming req see (Count)
system.mem_ctrl.rdQLenPdf::13                       0                       # What read queue length does an incoming req see (Count)
system.mem_ctrl.rdQLenPdf::14                       0                       # What read queue length does an incoming req see (Count)
system.mem_ctrl.rdQLenPdf::15                       0                       # What read queue length does an incoming req see (Count)
system.mem_ctrl.rdQLenPdf::16                       0                       # What read queue length does an incoming req see (Count)
system.mem_ctrl.rdQLenPdf::17                       0                       # What read queue length does an incoming req see (Count)
system.mem_ctrl.rdQLenPdf::18                       0                       # What read queue length does an incoming req see (Count)
system.mem_ctrl.rdQLenPdf::19                       0                       # What read queue length does an incoming req see (Count)
system.mem_ctrl.rdQLenPdf::20                       0                       # What read queue length does an incoming req see (Count)
system.mem_ctrl.rdQLenPdf::21                       0                       # What read queue length does an incoming req see (Count)
system.mem_ctrl.rdQLenPdf::22                       0                       # What read queue length does an incoming req see (Count)
system.mem_ctrl.rdQLenPdf::23                       0                       # What read queue length does an incoming req see (Count)
system.mem_ctrl.rdQLenPdf::24                       0                       # What read queue length does an incoming req see (Count)
system.mem_ctrl.rdQLenPdf::25                       0                       # What read queue length does an incoming req see (Count)
system.mem_ctrl.rdQLenPdf::26                       0                       # What read queue length does an incoming req see (Count)
system.mem_ctrl.rdQLenPdf::27                       0                       # What read queue length does an incoming req see (Count)
system.mem_ctrl.rdQLenPdf::28                       0                       # What read queue length does an incoming req see (Count)
system.mem_ctrl.rdQLenPdf::29                       0                       # What read queue length does an incoming req see (Count)
system.mem_ctrl.rdQLenPdf::30                       0                       # What read queue length does an incoming req see (Count)
system.mem_ctrl.rdQLenPdf::31                       0                       # What read queue length does an incoming req see (Count)
system.mem_ctrl.wrQLenPdf::0                        1                       # What write queue length does an incoming req see (Count)
system.mem_ctrl.wrQLenPdf::1                        1                       # What write queue length does an incoming req see (Count)
system.mem_ctrl.wrQLenPdf::2                        1                       # What write queue length does an incoming req see (Count)
system.mem_ctrl.wrQLenPdf::3                        1                       # What write queue length does an incoming req see (Count)
system.mem_ctrl.wrQLenPdf::4                        1                       # What write queue length does an incoming req see (Count)
system.mem_ctrl.wrQLenPdf::5                        1                       # What write queue length does an incoming req see (Count)
system.mem_ctrl.wrQLenPdf::6                        1                       # What write queue length does an incoming req see (Count)
system.mem_ctrl.wrQLenPdf::7                        1                       # What write queue length does an incoming req see (Count)
system.mem_ctrl.wrQLenPdf::8                        1                       # What write queue length does an incoming req see (Count)
system.mem_ctrl.wrQLenPdf::9                        1                       # What write queue length does an incoming req see (Count)
system.mem_ctrl.wrQLenPdf::10                       1                       # What write queue length does an incoming req see (Count)
system.mem_ctrl.wrQLenPdf::11                       1                       # What write queue length does an incoming req see (Count)
system.mem_ctrl.wrQLenPdf::12                       1                       # What write queue length does an incoming req see (Count)
system.mem_ctrl.wrQLenPdf::13                       1                       # What write queue length does an incoming req see (Count)
system.mem_ctrl.wrQLenPdf::14                       1                       # What write queue length does an incoming req see (Count)
system.mem_ctrl.wrQLenPdf::15                     205                       # What write queue length does an incoming req see (Count)
system.mem_ctrl.wrQLenPdf::16                     205                       # What write queue length does an incoming req see (Count)
system.mem_ctrl.wrQLenPdf::17                     217                       # What write queue length does an incoming req see (Count)
system.mem_ctrl.wrQLenPdf::18                     217                       # What write queue length does an incoming req see (Count)
system.mem_ctrl.wrQLenPdf::19                     217                       # What write queue length does an incoming req see (Count)
system.mem_ctrl.wrQLenPdf::20                     217                       # What write queue length does an incoming req see (Count)
system.mem_ctrl.wrQLenPdf::21                     217                       # What write queue length does an incoming req see (Count)
system.mem_ctrl.wrQLenPdf::22                     217                       # What write queue length does an incoming req see (Count)
system.mem_ctrl.wrQLenPdf::23                     217                       # What write queue length does an incoming req see (Count)
system.mem_ctrl.wrQLenPdf::24                     216                       # What write queue length does an incoming req see (Count)
system.mem_ctrl.wrQLenPdf::25                     216                       # What write queue length does an incoming req see (Count)
system.mem_ctrl.wrQLenPdf::26                     216                       # What write queue length does an incoming req see (Count)
system.mem_ctrl.wrQLenPdf::27                     216                       # What write queue length does an incoming req see (Count)
system.mem_ctrl.wrQLenPdf::28                     216                       # What write queue length does an incoming req see (Count)
system.mem_ctrl.wrQLenPdf::29                     216                       # What write queue length does an incoming req see (Count)
system.mem_ctrl.wrQLenPdf::30                     216                       # What write queue length does an incoming req see (Count)
system.mem_ctrl.wrQLenPdf::31                     216                       # What write queue length does an incoming req see (Count)
system.mem_ctrl.wrQLenPdf::32                     216                       # What write queue length does an incoming req see (Count)
system.mem_ctrl.wrQLenPdf::33                       0                       # What write queue length does an incoming req see (Count)
system.mem_ctrl.wrQLenPdf::34                       0                       # What write queue length does an incoming req see (Count)
system.mem_ctrl.wrQLenPdf::35                       0                       # What write queue length does an incoming req see (Count)
system.mem_ctrl.wrQLenPdf::36                       0                       # What write queue length does an incoming req see (Count)
system.mem_ctrl.wrQLenPdf::37                       0                       # What write queue length does an incoming req see (Count)
system.mem_ctrl.wrQLenPdf::38                       0                       # What write queue length does an incoming req see (Count)
system.mem_ctrl.wrQLenPdf::39                       0                       # What write queue length does an incoming req see (Count)
system.mem_ctrl.wrQLenPdf::40                       0                       # What write queue length does an incoming req see (Count)
system.mem_ctrl.wrQLenPdf::41                       0                       # What write queue length does an incoming req see (Count)
system.mem_ctrl.wrQLenPdf::42                       0                       # What write queue length does an incoming req see (Count)
system.mem_ctrl.wrQLenPdf::43                       0                       # What write queue length does an incoming req see (Count)
system.mem_ctrl.wrQLenPdf::44                       0                       # What write queue length does an incoming req see (Count)
system.mem_ctrl.wrQLenPdf::45                       0                       # What write queue length does an incoming req see (Count)
system.mem_ctrl.wrQLenPdf::46                       0                       # What write queue length does an incoming req see (Count)
system.mem_ctrl.wrQLenPdf::47                       0                       # What write queue length does an incoming req see (Count)
system.mem_ctrl.wrQLenPdf::48                       0                       # What write queue length does an incoming req see (Count)
system.mem_ctrl.wrQLenPdf::49                       0                       # What write queue length does an incoming req see (Count)
system.mem_ctrl.wrQLenPdf::50                       0                       # What write queue length does an incoming req see (Count)
system.mem_ctrl.wrQLenPdf::51                       0                       # What write queue length does an incoming req see (Count)
system.mem_ctrl.wrQLenPdf::52                       0                       # What write queue length does an incoming req see (Count)
system.mem_ctrl.wrQLenPdf::53                       0                       # What write queue length does an incoming req see (Count)
system.mem_ctrl.wrQLenPdf::54                       0                       # What write queue length does an incoming req see (Count)
system.mem_ctrl.wrQLenPdf::55                       0                       # What write queue length does an incoming req see (Count)
system.mem_ctrl.wrQLenPdf::56                       0                       # What write queue length does an incoming req see (Count)
system.mem_ctrl.wrQLenPdf::57                       0                       # What write queue length does an incoming req see (Count)
system.mem_ctrl.wrQLenPdf::58                       0                       # What write queue length does an incoming req see (Count)
system.mem_ctrl.wrQLenPdf::59                       0                       # What write queue length does an incoming req see (Count)
system.mem_ctrl.wrQLenPdf::60                       0                       # What write queue length does an incoming req see (Count)
system.mem_ctrl.wrQLenPdf::61                       0                       # What write queue length does an incoming req see (Count)
system.mem_ctrl.wrQLenPdf::62                       0                       # What write queue length does an incoming req see (Count)
system.mem_ctrl.wrQLenPdf::63                       0                       # What write queue length does an incoming req see (Count)
system.mem_ctrl.rdPerTurnAround::samples          216                       # Reads before turning the bus around for writes (Count)
system.mem_ctrl.rdPerTurnAround::mean       33.467593                       # Reads before turning the bus around for writes (Count)
system.mem_ctrl.rdPerTurnAround::gmean      22.048072                       # Reads before turning the bus around for writes (Count)
[...]
system.mem_ctrl.dram.bytesInstRead::total        37056                       # Number of instructions bytes read from this memory (Byte)
system.mem_ctrl.dram.bytesWritten::writebacks       248832                       # Number of bytes written to this memory (Byte)
system.mem_ctrl.dram.bytesWritten::total       248832                       # Number of bytes written to this memory (Byte)
system.mem_ctrl.dram.numReads::cpu.inst           579                       # Number of read requests responded to by this memory (Count)
system.mem_ctrl.dram.numReads::cpu.data          6687                       # Number of read requests responded to by this memory (Count)
system.mem_ctrl.dram.numReads::total             7266                       # Number of read requests responded to by this memory (Count)
system.mem_ctrl.dram.numWrites::writebacks         3888                       # Number of write requests responded to by this memory (Count)
system.mem_ctrl.dram.numWrites::total            3888                       # Number of write requests responded to by this memory (Count)
system.mem_ctrl.dram.bwRead::cpu.inst          119271                       # Total read bandwidth from this memory ((Byte/Second))
system.mem_ctrl.dram.bwRead::cpu.data         1377486                       # Total read bandwidth from this memory ((Byte/Second))
system.mem_ctrl.dram.bwRead::total            1496757                       # Total read bandwidth from this memory ((Byte/Second))
system.mem_ctrl.dram.bwInstRead::cpu.inst       119271                       # Instruction read bandwidth from this memory ((Byte/Second))
system.mem_ctrl.dram.bwInstRead::total         119271                       # Instruction read bandwidth from this memory ((Byte/Second))
system.mem_ctrl.dram.bwWrite::writebacks       800907                       # Write bandwidth from this memory ((Byte/Second))
system.mem_ctrl.dram.bwWrite::total            800907                       # Write bandwidth from this memory ((Byte/Second))
system.mem_ctrl.dram.bwTotal::writebacks       800907                       # Total bandwidth to/from this memory ((Byte/Second))
system.mem_ctrl.dram.bwTotal::cpu.inst         119271                       # Total bandwidth to/from this memory ((Byte/Second))
system.mem_ctrl.dram.bwTotal::cpu.data        1377486                       # Total bandwidth to/from this memory ((Byte/Second))
system.mem_ctrl.dram.bwTotal::total           2297664                       # Total bandwidth to/from this memory ((Byte/Second))
system.mem_ctrl.dram.readBursts                  7248                       # Number of DRAM read bursts (Count)
system.mem_ctrl.dram.writeBursts                 3864                       # Number of DRAM write bursts (Count)
system.mem_ctrl.dram.perBankRdBursts::0           399                       # Per bank write bursts (Count)
system.mem_ctrl.dram.perBankRdBursts::1           365                       # Per bank write bursts (Count)
system.mem_ctrl.dram.perBankRdBursts::2           329                       # Per bank write bursts (Count)
system.mem_ctrl.dram.perBankRdBursts::3           386                       # Per bank write bursts (Count)
system.mem_ctrl.dram.perBankRdBursts::4           318                       # Per bank write bursts (Count)
system.mem_ctrl.dram.perBankRdBursts::5           494                       # Per bank write bursts (Count)
system.mem_ctrl.dram.perBankRdBursts::6           538                       # Per bank write bursts (Count)
system.mem_ctrl.dram.perBankRdBursts::7           545                       # Per bank write bursts (Count)
system.mem_ctrl.dram.perBankRdBursts::8           505                       # Per bank write bursts (Count)
system.mem_ctrl.dram.perBankRdBursts::9           545                       # Per bank write bursts (Count)
system.mem_ctrl.dram.perBankRdBursts::10          510                       # Per bank write bursts (Count)
system.mem_ctrl.dram.perBankRdBursts::11          544                       # Per bank write bursts (Count)
system.mem_ctrl.dram.perBankRdBursts::12          548                       # Per bank write bursts (Count)
system.mem_ctrl.dram.perBankRdBursts::13          527                       # Per bank write bursts (Count)
system.mem_ctrl.dram.perBankRdBursts::14          374                       # Per bank write bursts (Count)
system.mem_ctrl.dram.perBankRdBursts::15          321                       # Per bank write bursts (Count)
system.mem_ctrl.dram.perBankWrBursts::0           166                       # Per bank write bursts (Count)
system.mem_ctrl.dram.perBankWrBursts::1           218                       # Per bank write bursts (Count)
system.mem_ctrl.dram.perBankWrBursts::2           184                       # Per bank write bursts (Count)
system.mem_ctrl.dram.perBankWrBursts::3           214                       # Per bank write bursts (Count)
system.mem_ctrl.dram.perBankWrBursts::4           186                       # Per bank write bursts (Count)
system.mem_ctrl.dram.perBankWrBursts::5           259                       # Per bank write bursts (Count)
system.mem_ctrl.dram.perBankWrBursts::6           291                       # Per bank write bursts (Count)
system.mem_ctrl.dram.perBankWrBursts::7           286                       # Per bank write bursts (Count)
system.mem_ctrl.dram.perBankWrBursts::8           293                       # Per bank write bursts (Count)
system.mem_ctrl.dram.perBankWrBursts::9           288                       # Per bank write bursts (Count)
system.mem_ctrl.dram.perBankWrBursts::10          280                       # Per bank write bursts (Count)
system.mem_ctrl.dram.perBankWrBursts::11          278                       # Per bank write bursts (Count)
system.mem_ctrl.dram.perBankWrBursts::12          273                       # Per bank write bursts (Count)
system.mem_ctrl.dram.perBankWrBursts::13          269                       # Per bank write bursts (Count)
system.mem_ctrl.dram.perBankWrBursts::14          207                       # Per bank write bursts (Count)
system.mem_ctrl.dram.perBankWrBursts::15          172                       # Per bank write bursts (Count)
system.mem_ctrl.dram.totQLat                 72621500                       # Total ticks spent queuing (Tick)
system.mem_ctrl.dram.totBusLat               36240000                       # Total ticks spent in databus transfers (Tick)
system.mem_ctrl.dram.totMemAccLat           208521500                       # Total ticks spent from burst creation until serviced by the DRAM (Tick)
system.mem_ctrl.dram.avgQLat                 10019.52                       # Average queueing delay per DRAM burst ((Tick/Count))
system.mem_ctrl.dram.avgBusLat                5000.00                       # Average bus latency per DRAM burst ((Tick/Count))
system.mem_ctrl.dram.avgMemAccLat            28769.52                       # Average memory access latency per DRAM burst ((Tick/Count))
system.mem_ctrl.dram.readRowHits                 4779                       # Number of row buffer hits during reads (Count)
system.mem_ctrl.dram.writeRowHits                3239                       # Number of row buffer hits during writes (Count)
system.mem_ctrl.dram.readRowHitRate             65.94                       # Row buffer hit rate for reads (Ratio)
system.mem_ctrl.dram.writeRowHitRate            83.83                       # Row buffer hit rate for writes (Ratio)
system.mem_ctrl.dram.bytesPerActivate::samples         3092                       # Bytes accessed per row activation (Byte)
system.mem_ctrl.dram.bytesPerActivate::mean   229.919793                       # Bytes accessed per row activation (Byte)
system.mem_ctrl.dram.bytesPerActivate::gmean   150.486694                       # Bytes accessed per row activation (Byte)
system.mem_ctrl.dram.bytesPerActivate::stdev   231.132681                       # Bytes accessed per row activation (Byte)
system.mem_ctrl.dram.bytesPerActivate::0-127         1356     43.86%     43.86% # Bytes accessed per row activation (Byte)
system.mem_ctrl.dram.bytesPerActivate::128-255          727     23.51%     67.37% # Bytes accessed per row activation (Byte)
system.mem_ctrl.dram.bytesPerActivate::256-383          339     10.96%     78.33% # Bytes accessed per row activation (Byte)
system.mem_ctrl.dram.bytesPerActivate::384-511          177      5.72%     84.06% # Bytes accessed per row activation (Byte)
system.mem_ctrl.dram.bytesPerActivate::512-639          171      5.53%     89.59% # Bytes accessed per row activation (Byte)
system.mem_ctrl.dram.bytesPerActivate::640-767          192      6.21%     95.80% # Bytes accessed per row activation (Byte)
system.mem_ctrl.dram.bytesPerActivate::768-895           45      1.46%     97.25% # Bytes accessed per row activation (Byte)
system.mem_ctrl.dram.bytesPerActivate::896-1023           32      1.03%     98.29% # Bytes accessed per row activation (Byte)
system.mem_ctrl.dram.bytesPerActivate::1024-1151           53      1.71%    100.00% # Bytes accessed per row activation (Byte)
system.mem_ctrl.dram.bytesPerActivate::total         3092                       # Bytes accessed per row activation (Byte)
system.mem_ctrl.dram.bytesRead                 463872                       # Total bytes read (Byte)
system.mem_ctrl.dram.bytesWritten              247296                       # Total bytes written (Byte)
system.mem_ctrl.dram.avgRdBW                 1.493049                       # Average DRAM read bandwidth in MiBytes/s ((Byte/Second))
system.mem_ctrl.dram.avgWrBW                 0.795963                       # Average DRAM write bandwidth in MiBytes/s ((Byte/Second))
system.mem_ctrl.dram.peakBW                  12800.00                       # Theoretical peak bandwidth in MiByte/s ((Byte/Second))
system.mem_ctrl.dram.busUtil                     0.02                       # Data bus utilization in percentage (Ratio)
system.mem_ctrl.dram.busUtilRead                 0.01                       # Data bus utilization in percentage for reads (Ratio)
system.mem_ctrl.dram.busUtilWrite                0.01                       # Data bus utilization in percentage for writes (Ratio)
system.mem_ctrl.dram.pageHitRate                72.16                       # Row buffer hit rate, read and write combined (Ratio)
system.mem_ctrl.dram.power_state.pwrStateResidencyTicks::UNDEFINED 310687746000                       # Cumulative time (in ticks) in various power states (Tick)
system.mem_ctrl.dram.rank0.actEnergy         10695720                       # Energy for activate commands per rank (pJ) (Joule)
system.mem_ctrl.dram.rank0.preEnergy          5681115                       # Energy for precharge commands per rank (pJ) (Joule)
system.mem_ctrl.dram.rank0.readEnergy        24090360                       # Energy for read commands per rank (pJ) (Joule)
system.mem_ctrl.dram.rank0.writeEnergy        9416880                       # Energy for write commands per rank (pJ) (Joule)
system.mem_ctrl.dram.rank0.refreshEnergy 24525365280.000004                       # Energy for refresh commands per rank (pJ) (Joule)
system.mem_ctrl.dram.rank0.actBackEnergy   6660566280                       # Energy for active background per rank (pJ) (Joule)
system.mem_ctrl.dram.rank0.preBackEnergy 113695196640                       # Energy for precharge background per rank (pJ) (Joule)
system.mem_ctrl.dram.rank0.actPowerDownEnergy            0                       # Energy for active power-down per rank (pJ) (Joule)
system.mem_ctrl.dram.rank0.prePowerDownEnergy            0                       # Energy for precharge power-down per rank (pJ) (Joule)
system.mem_ctrl.dram.rank0.selfRefreshEnergy            0                       # Energy for self refresh per rank (pJ) (Joule)
system.mem_ctrl.dram.rank0.totalEnergy   144931012275                       # Total energy per rank (pJ) (Joule)
system.mem_ctrl.dram.rank0.averagePower    466.484482                       # Core power per rank (mW) (Watt)
system.mem_ctrl.dram.rank0.totalIdleTime            0                       # Total Idle time Per DRAM Rank (Tick)
system.mem_ctrl.dram.rank0.pwrStateTime::IDLE 295518912750                       # Time in different power states (Tick)
system.mem_ctrl.dram.rank0.pwrStateTime::REF  10374520000                       # Time in different power states (Tick)
system.mem_ctrl.dram.rank0.pwrStateTime::SREF            0                       # Time in different power states (Tick)
system.mem_ctrl.dram.rank0.pwrStateTime::PRE_PDN            0                       # Time in different power states (Tick)
system.mem_ctrl.dram.rank0.pwrStateTime::ACT   4794313250                       # Time in different power states (Tick)
system.mem_ctrl.dram.rank0.pwrStateTime::ACT_PDN            0                       # Time in different power states (Tick)
system.mem_ctrl.dram.rank1.actEnergy         11395440                       # Energy for activate commands per rank (pJ) (Joule)
system.mem_ctrl.dram.rank1.preEnergy          6053025                       # Energy for precharge commands per rank (pJ) (Joule)
system.mem_ctrl.dram.rank1.readEnergy        27660360                       # Energy for read commands per rank (pJ) (Joule)
system.mem_ctrl.dram.rank1.writeEnergy       10753200                       # Energy for write commands per rank (pJ) (Joule)
system.mem_ctrl.dram.rank1.refreshEnergy 24525365280.000004                       # Energy for refresh commands per rank (pJ) (Joule)
system.mem_ctrl.dram.rank1.actBackEnergy   7195145340                       # Energy for active background per rank (pJ) (Joule)
system.mem_ctrl.dram.rank1.preBackEnergy 113245024800                       # Energy for precharge background per rank (pJ) (Joule)
system.mem_ctrl.dram.rank1.actPowerDownEnergy            0                       # Energy for active power-down per rank (pJ) (Joule)
system.mem_ctrl.dram.rank1.prePowerDownEnergy            0                       # Energy for precharge power-down per rank (pJ) (Joule)
system.mem_ctrl.dram.rank1.selfRefreshEnergy            0                       # Energy for self refresh per rank (pJ) (Joule)
system.mem_ctrl.dram.rank1.totalEnergy   145021397445                       # Total energy per rank (pJ) (Joule)
system.mem_ctrl.dram.rank1.averagePower    466.775402                       # Core power per rank (mW) (Watt)
system.mem_ctrl.dram.rank1.totalIdleTime            0                       # Total Idle time Per DRAM Rank (Tick)
system.mem_ctrl.dram.rank1.pwrStateTime::IDLE 294343432000                       # Time in different power states (Tick)
system.mem_ctrl.dram.rank1.pwrStateTime::REF  10374520000                       # Time in different power states (Tick)
system.mem_ctrl.dram.rank1.pwrStateTime::SREF            0                       # Time in different power states (Tick)
system.mem_ctrl.dram.rank1.pwrStateTime::PRE_PDN            0                       # Time in different power states (Tick)
system.mem_ctrl.dram.rank1.pwrStateTime::ACT   5969794000                       # Time in different power states (Tick)
system.mem_ctrl.dram.rank1.pwrStateTime::ACT_PDN            0                       # Time in different power states (Tick)
system.mem_ctrl.power_state.pwrStateResidencyTicks::UNDEFINED 310687746000                       # Cumulative time (in ticks) in various power states (Tick)
system.membus.transDist::ReadResp                3698                       # Transaction distribution (Count)
system.membus.transDist::WritebackDirty          3888                       # Transaction distribution (Count)
system.membus.transDist::CleanEvict              1192                       # Transaction distribution (Count)
system.membus.transDist::ReadExReq               3568                       # Transaction distribution (Count)
system.membus.transDist::ReadExResp              3568                       # Transaction distribution (Count)
system.membus.transDist::ReadSharedReq           3698                       # Transaction distribution (Count)
system.membus.pktCount_system.l2cache.mem_side_port::system.mem_ctrl.port        19612                       # Packet count per connected requestor and responder (Count)
system.membus.pktCount::total                   19612                       # Packet count per connected requestor and responder (Count)
system.membus.pktSize_system.l2cache.mem_side_port::system.mem_ctrl.port       713856                       # Cumulative packet size per connected requestor and responder (Byte)
system.membus.pktSize::total                   713856                       # Cumulative packet size per connected requestor and responder (Byte)
system.membus.snoops                                0                       # Total snoops (Count)
system.membus.snoopTraffic                          0                       # Total snoop traffic (Byte)
system.membus.snoopFanout::samples               7266                       # Request fanout histogram (Count)
system.membus.snoopFanout::mean                     0                       # Request fanout histogram (Count)
system.membus.snoopFanout::stdev                    0                       # Request fanout histogram (Count)
system.membus.snoopFanout::underflows               0      0.00%      0.00% # Request fanout histogram (Count)
system.membus.snoopFanout::0                     7266    100.00%    100.00% # Request fanout histogram (Count)
system.membus.snoopFanout::1                        0      0.00%    100.00% # Request fanout histogram (Count)
system.membus.snoopFanout::overflows                0      0.00%    100.00% # Request fanout histogram (Count)
system.membus.snoopFanout::min_value                0                       # Request fanout histogram (Count)
system.membus.snoopFanout::max_value                0                       # Request fanout histogram (Count)
system.membus.snoopFanout::total                 7266                       # Request fanout histogram (Count)
system.membus.power_state.pwrStateResidencyTicks::UNDEFINED 310687746000                       # Cumulative time (in ticks) in various power states (Tick)
system.membus.reqLayer0.occupancy            27898000                       # Layer occupancy (ticks) (Tick)
system.membus.reqLayer0.utilization               0.0                       # Layer utilization (Ratio)
system.membus.respLayer0.occupancy           38767000                       # Layer occupancy (ticks) (Tick)
system.membus.respLayer0.utilization              0.0                       # Layer utilization (Ratio)
system.membus.snoop_filter.totRequests          12346                       # Total number of requests made to the snoop filter. (Count)
system.membus.snoop_filter.hitSingleRequests         5080                       # Number of requests hitting in the snoop filter with a single holder of the requested data. (Count)
system.membus.snoop_filter.hitMultiRequests            0                       # Number of requests hitting in the snoop filter with multiple (>1) holders of the requested data. (Count)
system.membus.snoop_filter.totSnoops                0                       # Total number of snoops made to the snoop filter. (Count)
system.membus.snoop_filter.hitSingleSnoops            0                       # Number of snoops hitting in the snoop filter with a single holder of the requested data. (Count)
system.membus.snoop_filter.hitMultiSnoops            0                       # Number of snoops hitting in the snoop filter with multiple (>1) holders of the requested data. (Count)
system.workload.inst.arm                            0                       # number of arm instructions executed (Count)
system.workload.inst.quiesce                        0                       # number of quiesce instructions executed (Count)

---------- End Simulation Statistics   ----------
