
---------- Begin Simulation Statistics ----------
simSeconds                                   0.310959                       # Number of seconds simulated (Second)
simTicks                                 310959427000                       # Number of ticks simulated (Tick)
finalTick                                310959427000                       # Number of ticks from beginning of simulation (restored from checkpoints and never reset) (Tick)
simFreq                                  1000000000000                       # The number of ticks per simulated second ((Tick/Second))
hostSeconds                                     67.61                       # Real time elapsed on the host (Second)
hostTickRate                               4599165229                       # The number of ticks simulated per host second (ticks/s) ((Tick/Second))
hostMemory                                    8550080                       # Number of bytes of host memory used (Byte)
simInsts                                     99629017                       # Number of instructions simulated (Count)
simOps                                       99629017                       # Number of ops (including micro ops) simulated (Count)
hostInstRate                                  1473535                       # Simulator instruction rate (inst/s) ((Count/Second))
hostOpRate                                    1473535                       # Simulator op (including micro ops) rate (op/s) ((Count/Second))
system.clk_domain.clock                          1000                       # Clock period in ticks (Tick)
system.clk_domain.voltage_domain.voltage            1                       # Voltage in Volts (Volt)
system.cpu.numCycles                        310959427                       # Number of cpu cycles simulated (Cycle)
system.cpu.numWorkItemsStarted                      0                       # Number of work items this cpu started (Count)
system.cpu.numWorkItemsCompleted                    0                       # Number of work items this cpu completed (Count)
system.cpu.dcache.demandHits::cpu.data       50514493                       # number of demand (read+write) hits (Count)
system.cpu.dcache.demandHits::total          50514493                       # number of demand (read+write) hits (Count)
system.cpu.dcache.overallHits::cpu.data      50514493                       # number of overall hits (Count)
system.cpu.dcache.overallHits::total         50514493                       # number of overall hits (Count)
system.cpu.dcache.demandMisses::cpu.data       327442                       # number of demand (read+write) misses (Count)
system.cpu.dcache.demandMisses::total          327442                       # number of demand (read+write) misses (Count)
system.cpu.dcache.overallMisses::cpu.data       327442                       # number of overall misses (Count)
system.cpu.dcache.overallMisses::total         327442                       # number of overall misses (Count)
system.cpu.dcache.demandMissLatency::cpu.data  10589402000                       # number of demand (read+write) miss ticks (Tick)
system.cpu.dcache.demandMissLatency::total  10589402000                       # number of demand (read+write) miss ticks (Tick)
system.cpu.dcache.overallMissLatency::cpu.data  10589402000                       # number of overall miss ticks (Tick)
system.cpu.dcache.overallMissLatency::total  10589402000                       # number of overall miss ticks (Tick)
system.cpu.dcache.demandAccesses::cpu.data     50841935                       # number of demand (read+write) accesses (Count)
system.cpu.dcache.demandAccesses::total      50841935                       # number of demand (read+write) accesses (Count)
system.cpu.dcache.overallAccesses::cpu.data     50841935                       # number of overall (read+write) accesses (Count)
system.cpu.dcache.overallAccesses::total     50841935                       # number of overall (read+write) accesses (Count)
system.cpu.dcache.demandMissRate::cpu.data     0.006440                       # miss rate for demand accesses (Ratio)
system.cpu.dcache.demandMissRate::total      0.006440                       # miss rate for demand accesses (Ratio)
system.cpu.dcache.overallMissRate::cpu.data     0.006440                       # miss rate for overall accesses (Ratio)
system.cpu.dcache.overallMissRate::total     0.006440                       # miss rate for overall accesses (Ratio)
system.cpu.dcache.demandAvgMissLatency::cpu.data 32339.779259                       # average overall miss latency ((Cycle/Count))
system.cpu.dcache.demandAvgMissLatency::total 32339.779259                       # average overall miss latency ((Cycle/Count))
system.cpu.dcache.overallAvgMissLatency::cpu.data 32339.779259                       # average overall miss latency ((Cycle/Count))
system.cpu.dcache.overallAvgMissLatency::total 32339.779259                       # average overall miss latency ((Cycle/Count))
system.cpu.dcache.blockedCycles::no_mshrs            0                       # number of cycles access was blocked (Cycle)
system.cpu.dcache.blockedCycles::no_targets            0                       # number of cycles access was blocked (Cycle)
system.cpu.dcache.blockedCauses::no_mshrs            0                       # number of times access was blocked (Count)
system.cpu.dcache.blockedCauses::no_targets            0                       # number of times access was blocked (Count)
system.cpu.dcache.avgBlocked::no_mshrs            nan                       # average number of cycles each access was blocked ((Cycle/Count))
system.cpu.dcache.avgBlocked::no_targets          nan                       # average number of cycles each access was blocked ((Cycle/Count))
system.cpu.dcache.writebacks::writebacks       323928                       # number of writebacks (Count)
system.cpu.dcache.writebacks::total            323928                       # number of writebacks (Count)
system.cpu.dcache.demandMshrMisses::cpu.data       327442                       # number of demand (read+write) MSHR misses (Count)
system.cpu.dcache.demandMshrMisses::total       327442                       # number of demand (read+write) MSHR misses (Count)
system.cpu.dcache.overallMshrMisses::cpu.data       327442                       # number of overall MSHR misses (Count)
system.cpu.dcache.overallMshrMisses::total       327442                       # number of overall MSHR misses (Count)
system.cpu.dcache.demandMshrMissLatency::cpu.data   9934518000                       # number of demand (read+write) MSHR miss ticks (Tick)
system.cpu.dcache.demandMshrMissLatency::total   9934518000                       # number of demand (read+write) MSHR miss ticks (Tick)
system.cpu.dcache.overallMshrMissLatency::cpu.data   9934518000                       # number of overall MSHR miss ticks (Tick)
system.cpu.dcache.overallMshrMissLatency::total   9934518000                       # number of overall MSHR miss ticks (Tick)
system.cpu.dcache.demandMshrMissRate::cpu.data     0.006440                       # mshr miss ratio for demand accesses (Ratio)
system.cpu.dcache.demandMshrMissRate::total     0.006440                       # mshr miss ratio for demand accesses (Ratio)
system.cpu.dcache.overallMshrMissRate::cpu.data     0.006440                       # mshr miss ratio for overall accesses (Ratio)
system.cpu.dcache.overallMshrMissRate::total     0.006440                       # mshr miss ratio for overall accesses (Ratio)
system.cpu.dcache.demandAvgMshrMissLatency::cpu.data 30339.779259                       # average overall mshr miss latency ((Cycle/Count))
system.cpu.dcache.demandAvgMshrMissLatency::total 30339.779259                       # average overall mshr miss latency ((Cycle/Count))
system.cpu.dcache.overallAvgMshrMissLatency::cpu.data 30339.779259                       # average overall mshr miss latency ((Cycle/Count))
system.cpu.dcache.overallAvgMshrMissLatency::total 30339.779259                       # average overall mshr miss latency ((Cycle/Count))
system.cpu.dcache.replacements                 325740                       # number of replacements (Count)
system.cpu.dcache.ReadReq.hits::cpu.data     46229463                       # number of ReadReq hits (Count)
system.cpu.dcache.ReadReq.hits::total        46229463                       # number of ReadReq hits (Count)
system.cpu.dcache.ReadReq.misses::cpu.data       292944                       # number of ReadReq misses (Count)
system.cpu.dcache.ReadReq.misses::total        292944                       # number of ReadReq misses (Count)
system.cpu.dcache.ReadReq.missLatency::cpu.data   9184860000                       # number of ReadReq miss ticks (Tick)
system.cpu.dcache.ReadReq.missLatency::total   9184860000                       # number of ReadReq miss ticks (Tick)
system.cpu.dcache.ReadReq.accesses::cpu.data     46522407                       # number of ReadReq accesses(hits+misses) (Count)
system.cpu.dcache.ReadReq.accesses::total     46522407                       # number of ReadReq accesses(hits+misses) (Count)
system.cpu.dcache.ReadReq.missRate::cpu.data     0.006297                       # miss rate for ReadReq accesses (Ratio)
system.cpu.dcache.ReadReq.missRate::total     0.006297                       # miss rate for ReadReq accesses (Ratio)
system.cpu.dcache.ReadReq.avgMissLatency::cpu.data 31353.637555                       # average ReadReq miss latency ((Tick/Count))
system.cpu.dcache.ReadReq.avgMissLatency::total 31353.637555                       # average ReadReq miss latency ((Tick/Count))
system.cpu.dcache.ReadReq.mshrMisses::cpu.data       292944                       # number of ReadReq MSHR misses (Count)
system.cpu.dcache.ReadReq.mshrMisses::total       292944                       # number of ReadReq MSHR misses (Count)
system.cpu.dcache.ReadReq.mshrMissLatency::cpu.data   8598972000                       # number of ReadReq MSHR miss ticks (Tick)
system.cpu.dcache.ReadReq.mshrMissLatency::total   8598972000                       # number of ReadReq MSHR miss ticks (Tick)
system.cpu.dcache.ReadReq.mshrMissRate::cpu.data     0.006297                       # mshr miss rate for ReadReq accesses (Ratio)
system.cpu.dcache.ReadReq.mshrMissRate::total     0.006297                       # mshr miss rate for ReadReq accesses (Ratio)
system.cpu.dcache.ReadReq.avgMshrMissLatency::cpu.data 29353.637555                       # average ReadReq mshr miss latency ((Tick/Count))
system.cpu.dcache.ReadReq.avgMshrMissLatency::total 29353.637555                       # average ReadReq mshr miss latency ((Tick/Count))
system.cpu.dcache.WriteReq.hits::cpu.data      4285030                       # number of WriteReq hits (Count)
system.cpu.dcache.WriteReq.hits::total        4285030                       # number of WriteReq hits (Count)
system.cpu.dcache.WriteReq.misses::cpu.data        34498                       # number of WriteReq misses (Count)
system.cpu.dcache.WriteReq.misses::total        34498                       # number of WriteReq misses (Count)
system.cpu.dcache.WriteReq.missLatency::cpu.data   1404542000                       # number of WriteReq miss ticks (Tick)
system.cpu.dcache.WriteReq.missLatency::total   1404542000                       # number of WriteReq miss ticks (Tick)
system.cpu.dcache.WriteReq.accesses::cpu.data      4319528                       # number of WriteReq accesses(hits+misses) (Count)
system.cpu.dcache.WriteReq.accesses::total      4319528                       # number of WriteReq accesses(hits+misses) (Count)
system.cpu.dcache.WriteReq.missRate::cpu.data     0.007987                       # miss rate for WriteReq accesses (Ratio)
system.cpu.dcache.WriteReq.missRate::total     0.007987                       # miss rate for WriteReq accesses (Ratio)
system.cpu.dcache.WriteReq.avgMissLatency::cpu.data 40713.722535                       # average WriteReq miss latency ((Tick/Count))
system.cpu.dcache.WriteReq.avgMissLatency::total 40713.722535                       # average WriteReq miss latency ((Tick/Count))
system.cpu.dcache.WriteReq.mshrMisses::cpu.data        34498                       # number of WriteReq MSHR misses (Count)
system.cpu.dcache.WriteReq.mshrMisses::total        34498                       # number of WriteReq MSHR misses (Count)
system.cpu.dcache.WriteReq.mshrMissLatency::cpu.data   1335546000                       # number of WriteReq MSHR miss ticks (Tick)
system.cpu.dcache.WriteReq.mshrMissLatency::total   1335546000                       # number of WriteReq MSHR miss ticks (Tick)
system.cpu.dcache.WriteReq.mshrMissRate::cpu.data     0.007987                       # mshr miss rate for WriteReq accesses (Ratio)
system.cpu.dcache.WriteReq.mshrMissRate::total     0.007987                       # mshr miss rate for WriteReq accesses (Ratio)
system.cpu.dcache.WriteReq.avgMshrMissLatency::cpu.data 38713.722535                       # average WriteReq mshr miss latency ((Tick/Count))
system.cpu.dcache.WriteReq.avgMshrMissLatency::total 38713.722535                       # average WriteReq mshr miss latency ((Tick/Count))
system.cpu.dcache.power_state.pwrStateResidencyTicks::UNDEFINED 310959427000                       # Cumulative time (in ticks) in various power states (Tick)
system.cpu.dcache.tags.tagsInUse           511.572570                       # Average ticks per tags in use ((Tick/Count))
system.cpu.dcache.tags.totalRefs             50841935                       # Total number of references to valid blocks. (Count)
system.cpu.dcache.tags.sampledRefs             326252                       # Sample count of references to valid blocks. (Count)
system.cpu.dcache.tags.avgRefs             155.836393                       # Average number of references to valid blocks. ((Count/Count))
system.cpu.dcache.tags.warmupTick              306000                       # The tick when the warmup percentage was hit. (Tick)
system.cpu.dcache.tags.occupancies::cpu.data   511.572570                       # Average occupied blocks per tick, per requestor ((Count/Tick))
system.cpu.dcache.tags.avgOccs::cpu.data     0.999165                       # Average percentage of cache occupancy ((Ratio/Tick))
system.cpu.dcache.tags.avgOccs::total        0.999165                       # Average percentage of cache occupancy ((Ratio/Tick))
system.cpu.dcache.tags.occupanciesTaskId::1024          512                       # Occupied blocks per task id (Count)
system.cpu.dcache.tags.ageTaskId_1024::0           20                       # Occupied blocks per task id, per block age (Count)
system.cpu.dcache.tags.ageTaskId_1024::1          126                       # Occupied blocks per task id, per block age (Count)
system.cpu.dcache.tags.ageTaskId_1024::2          289                       # Occupied blocks per task id, per block age (Count)
system.cpu.dcache.tags.ageTaskId_1024::3           77                       # Occupied blocks per task id, per block age (Count)
system.cpu.dcache.tags.ratioOccsTaskId::1024            1                       # Ratio of occupied blocks and all blocks, per task id (Ratio)
system.cpu.dcache.tags.tagAccesses           51168187                       # Number of tag accesses (Count)
system.cpu.dcache.tags.dataAccesses          51168187                       # Number of data accesses (Count)
system.cpu.dcache.tags.power_state.pwrStateResidencyTicks::UNDEFINED 310959427000                       # Cumulative time (in ticks) in various power states (Tick)
system.cpu.exec_context.thread_0.numInsts     99629017                       # Number of instructions committed (Count)
system.cpu.exec_context.thread_0.numOps      99629017                       # Number of ops (including micro ops) committed (Count)
system.cpu.exec_context.thread_0.numIntAluAccesses     99609307                       # Number of integer alu accesses (Count)
system.cpu.exec_context.thread_0.numFpAluAccesses           18                       # Number of float alu accesses (Count)
system.cpu.exec_context.thread_0.numVecAluAccesses            0                       # Number of vector alu accesses (Count)
system.cpu.exec_context.thread_0.numCallsReturns         1779                       # Number of times a function call or return occured (Count)
system.cpu.exec_context.thread_0.numCondCtrlInsts      2176310                       # Number of instructions that are conditional controls (Count)
system.cpu.exec_context.thread_0.numIntInsts     99609307                       # Number of integer instructions (Count)
system.cpu.exec_context.thread_0.numFpInsts           18                       # Number of float instructions (Count)
system.cpu.exec_context.thread_0.numVecInsts            0                       # Number of vector instructions (Count)
system.cpu.exec_context.thread_0.numIntRegReads    135833761                       # Number of times the integer registers were read (Count)
system.cpu.exec_context.thread_0.numIntRegWrites     95298375                       # Number of times the integer registers were written (Count)
system.cpu.exec_context.thread_0.numFpRegReads           18                       # Number of times the floating registers were read (Count)
system.cpu.exec_context.thread_0.numFpRegWrites            0                       # Number of times the floating registers were written (Count)
system.cpu.exec_context.thread_0.numVecRegReads            0                       # Number of times the vector registers were read (Count)
system.cpu.exec_context.thread_0.numVecRegWrites            0                       # Number of times the vector registers were written (Count)
system.cpu.exec_context.thread_0.numVecPredRegReads            0                       # Number of times the predicate registers were read (Count)
system.cpu.exec_context.thread_0.numVecPredRegWrites            0                       # Number of times the predicate registers were written (Count)
system.cpu.exec_context.thread_0.numMiscRegReads            0                       # Number of times the Misc registers were read (Count)
system.cpu.exec_context.thread_0.numMiscRegWrites            0                       # Number of times the Misc registers were written (Count)
system.cpu.exec_context.thread_0.numMemRefs     50841988                       # Number of memory refs (Count)
system.cpu.exec_context.thread_0.numLoadInsts     46522406                       # Number of load instructions (Count)
system.cpu.exec_context.thread_0.numStoreInsts      4319582                       # Number of store instructions (Count)
system.cpu.exec_context.thread_0.numIdleCycles     0.001000                       # Number of idle cycles (Cycle)
system.cpu.exec_context.thread_0.numBusyCycles 310959426.999000                       # Number of busy cycles (Cycle)
system.cpu.exec_context.thread_0.notIdleFraction     1.000000                       # Percentage of non-idle cycles (Ratio)
system.cpu.exec_context.thread_0.idleFraction     0.000000                       # Percentage of idle cycles (Ratio)
system.cpu.exec_context.thread_0.numBranches      2197698                       # Number of branches fetched (Count)
system.cpu.exec_context.thread_0.statExecutedInstType::No_OpClass            0      0.00%      0.00% # Class of executed instruction. (Count)
system.cpu.exec_context.thread_0.statExecutedInstType::IntAlu     48787095     48.97%     48.97% # Class of executed instruction. (Count)
system.cpu.exec_context.thread_0.statExecutedInstType::IntMult            0      0.00%     48.97% # Class of executed instruction. (Count)
system.cpu.exec_context.thread_0.statExecutedInstType::IntDiv            0      0.00%     48.97% # Class of executed instruction. (Count)
system.cpu.exec_context.thread_0.statExecutedInstType::FloatAdd            0      0.00%     48.97% # Class of executed instruction. (Count)
system.cpu.exec_context.thread_0.statExecutedInstType::FloatCmp            0      0.00%     48.97% # Class of executed instruction. (Count)
system.cpu.exec_context.thread_0.statExecutedInstType::FloatCvt            0      0.00%     48.97% # Class of executed instruction. (Count)
system.cpu.exec_context.thread_0.statExecutedInstType::FloatMult            0      0.00%     48.97% # Class of executed instruction. (Count)
system.cpu.exec_context.thread_0.statExecutedInstType::FloatMultAcc            0      0.00%     48.97% # Class of executed instruction. (Count)
system.cpu.exec_context.thread_0.statExecutedInstType::FloatDiv            0      0.00%     48.97% # Class of executed instruction. (Count)
system.cpu.exec_context.thread_0.statExecutedInstType::FloatMisc            0      0.00%     48.97% # Class of executed instruction. (Count)
system.cpu.exec_context.thread_0.statExecutedInstType::FloatSqrt            0      0.00%     48.97% # Class of executed instruction. (Count)
system.cpu.exec_context.thread_0.statExecutedInstType::SimdAdd            0      0.00%     48.97% # Class of executed instruction. (Count)
system.cpu.exec_context.thread_0.statExecutedInstType::SimdAddAcc            0      0.00%     48.97% # Class of executed instruction. (Count)
system.cpu.exec_context.thread_0.statExecutedInstType::SimdAlu            0      0.00%     48.97% # Class of executed instruction. (Count)
system.cpu.exec_context.thread_0.statExecutedInstType::SimdCmp            0      0.00%     48.97% # Class of executed instruction. (Count)
system.cpu.exec_context.thread_0.statExecutedInstType::SimdCvt            0      0.00%     48.97% # Class of executed instruction. (Count)
system.cpu.exec_context.thread_0.statExecutedInstType::SimdMisc            0      0.00%     48.97% # Class of executed instruction. (Count)
system.cpu.exec_context.thread_0.statExecutedInstType::SimdMult            0      0.00%     48.97% # Class of executed instruction. (Count)
system.cpu.exec_context.thread_0.statExecutedInstType::SimdMultAcc            0      0.00%     48.97% # Class of executed instruction. (Count)
system.cpu.exec_context.thread_0.statExecutedInstType::SimdShift            0      0.00%     48.97% # Class of executed instruction. (Count)
system.cpu.exec_context.thread_0.statExecutedInstType::SimdShiftAcc            0      0.00%     48.97% # Class of executed instruction. (Count)
system.cpu.exec_context.thread_0.statExecutedInstType::SimdDiv            0      0.00%     48.97% # Class of executed instruction. (Count)
system.cpu.exec_context.thread_0.statExecutedInstType::SimdSqrt            0      0.00%     48.97% # Class of executed instruction. (Count)
system.cpu.exec_context.thread_0.statExecutedInstType::SimdFloatAdd            0      0.00%     48.97% # Class of executed instruction. (Count)
system.cpu.exec_context.thread_0.statExecutedInstType::SimdFloatAlu            0      0.00%     48.97% # Class of executed instruction. (Count)
system.cpu.exec_context.thread_0.statExecutedInstType::SimdFloatCmp            0      0.00%     48.97% # Class of executed instruction. (Count)
system.cpu.exec_context.thread_0.statExecutedInstType::SimdFloatCvt            0      0.00%     48.97% # Class of executed instruction. (Count)
system.cpu.exec_context.thread_0.statExecutedInstType::SimdFloatDiv            0      0.00%     48.97% # Class of executed instruction. (Count)
system.cpu.exec_context.thread_0.statExecutedInstType::SimdFloatMisc            0      0.00%     48.97% # Class of executed instruction. (Count)
system.cpu.exec_context.thread_0.statExecutedInstType::SimdFloatMult            0      0.00%     48.97% # Class of executed instruction. (Count)
system.cpu.exec_context.thread_0.statExecutedInstType::SimdFloatMultAcc            0      0.00%     48.97% # Class of executed instruction. (Count)
system.cpu.exec_context.thread_0.statExecutedInstType::SimdFloatSqrt            0      0.00%     48.97% # Class of executed instruction. (Count)
system.cpu.exec_context.thread_0.statExecutedInstType::SimdReduceAdd            0      0.00%     48.97% # Class of executed instruction. (Count)
system.cpu.exec_context.thread_0.statExecutedInstType::SimdReduceAlu            0      0.00%     48.97% # Class of executed instruction. (Count)
system.cpu.exec_context.thread_0.statExecutedInstType::SimdReduceCmp            0      0.00%     48.97% # Class of executed instruction. (Count)
system.cpu.exec_context.thread_0.statExecutedInstType::SimdFloatReduceAdd            0      0.00%     48.97% # Class of executed instruction. (Count)
system.cpu.exec_context.thread_0.statExecutedInstType::SimdFloatReduceCmp            0      0.00%     48.97% # Class of executed instruction. (Count)
system.cpu.exec_context.thread_0.statExecutedInstType::SimdAes            0      0.00%     48.97% # Class of executed instruction. (Count)
system.cpu.exec_context.thread_0.statExecutedInstType::SimdAesMix            0      0.00%     48.97% # Class of executed instruction. (Count)
system.cpu.exec_context.thread_0.statExecutedInstType::SimdSha1Hash            0      0.00%     48.97% # Class of executed instruction. (Count)
system.cpu.exec_context.thread_0.statExecutedInstType::SimdSha1Hash2            0      0.00%     48.97% # Class of executed instruction. (Count)
system.cpu.exec_context.thread_0.statExecutedInstType::SimdSha256Hash            0      0.00%     48.97% # Class of executed instruction. (Count)
system.cpu.exec_context.thread_0.statExecutedInstType::SimdSha256Hash2            0      0.00%     48.97% # Class of executed instruction. (Count)
system.cpu.exec_context.thread_0.statExecutedInstType::SimdShaSigma2            0      0.00%     48.97% # Class of executed instruction. (Count)
system.cpu.exec_context.thread_0.statExecutedInstType::SimdShaSigma3            0      0.00%     48.97% # Class of executed instruction. (Count)
system.cpu.exec_context.thread_0.statExecutedInstType::SimdPredAlu            0      0.00%     48.97% # Class of executed instruction. (Count)
system.cpu.exec_context.thread_0.statExecutedInstType::MemRead     46522406     46.70%     95.66% # Class of executed instruction. (Count)
system.cpu.exec_context.thread_0.statExecutedInstType::MemWrite      4319564      4.34%    100.00% # Class of executed instruction. (Count)
system.cpu.exec_context.thread_0.statExecutedInstType::FloatMemRead            0      0.00%    100.00% # Class of executed instruction. (Count)
system.cpu.exec_context.thread_0.statExecutedInstType::FloatMemWrite           18      0.00%    100.00% # Class of executed instruction. (Count)
system.cpu.exec_context.thread_0.statExecutedInstType::IprAccess            0      0.00%    100.00% # Class of executed instruction. (Count)
system.cpu.exec_context.thread_0.statExecutedInstType::InstPrefetch            0      0.00%    100.00% # Class of executed instruction. (Count)
system.cpu.exec_context.thread_0.statExecutedInstType::total     99629083                       # Class of executed instruction. (Count)
system.cpu.icache.demandHits::cpu.inst       99628430                       # number of demand (read+write) hits (Count)
system.cpu.icache.demandHits::total          99628430                       # number of demand (read+write) hits (Count)
system.cpu.icache.overallHits::cpu.inst      99628430                       # number of overall hits (Count)
system.cpu.icache.overallHits::total         99628430                       # number of overall hits (Count)
system.cpu.icache.demandMisses::cpu.inst          653                       # number of demand (read+write) misses (Count)
system.cpu.icache.demandMisses::total             653                       # number of demand (read+write) misses (Count)
system.cpu.icache.overallMisses::cpu.inst          653                       # number of overall misses (Count)
system.cpu.icache.overallMisses::total            653                       # number of overall misses (Count)
system.cpu.icache.demandMissLatency::cpu.inst     84330000                       # number of demand (read+write) miss ticks (Tick)
system.cpu.icache.demandMissLatency::total     84330000                       # number of demand (read+write) miss ticks (Tick)
system.cpu.icache.overallMissLatency::cpu.inst     84330000                       # number of overall miss ticks (Tick)
system.cpu.icache.overallMissLatency::total     84330000                       # number of overall miss ticks (Tick)
system.cpu.icache.demandAccesses::cpu.inst     99629083                       # number of demand (read+write) accesses (Count)
system.cpu.icache.demandAccesses::total      99629083                       # number of demand (read+write) accesses (Count)
system.cpu.icache.overallAccesses::cpu.inst     99629083                       # number of overall (read+write) accesses (Count)
system.cpu.icache.overallAccesses::total     99629083                       # number of overall (read+write) accesses (Count)
system.cpu.icache.demandMissRate::cpu.inst     0.000007                       # miss rate for demand accesses (Ratio)
system.cpu.icache.demandMissRate::total      0.000007                       # miss rate for demand accesses (Ratio)
system.cpu.icache.overallMissRate::cpu.inst     0.000007                       # miss rate for overall accesses (Ratio)
system.cpu.icache.overallMissRate::total     0.000007                       # miss rate for overall accesses (Ratio)
system.cpu.icache.demandAvgMissLatency::cpu.inst 129142.419602                       # average overall miss latency ((Cycle/Count))
system.cpu.icache.demandAvgMissLatency::total 129142.419602                       # average overall miss latency ((Cycle/Count))
system.cpu.icache.overallAvgMissLatency::cpu.inst 129142.419602                       # average overall miss latency ((Cycle/Count))
system.cpu.icache.overallAvgMissLatency::total 129142.419602                       # average overall miss latency ((Cycle/Count))
system.cpu.icache.blockedCycles::no_mshrs            0                       # number of cycles access was blocked (Cycle)
system.cpu.icache.blockedCycles::no_targets            0                       # number of cycles access was blocked (Cycle)
system.cpu.icache.blockedCauses::no_mshrs            0                       # number of times access was blocked (Count)
system.cpu.icache.blockedCauses::no_targets            0                       # number of times access was blocked (Count)
system.cpu.icache.avgBlocked::no_mshrs            nan                       # average number of cycles each access was blocked ((Cycle/Count))
system.cpu.icache.avgBlocked::no_targets          nan                       # average number of cycles each access was blocked ((Cycle/Count))
system.cpu.icache.demandMshrMisses::cpu.inst          653                       # number of demand (read+write) MSHR misses (Count)
system.cpu.icache.demandMshrMisses::total          653                       # number of demand (read+write) MSHR misses (Count)
system.cpu.icache.overallMshrMisses::cpu.inst          653                       # number of overall MSHR misses (Count)
system.cpu.icache.overallMshrMisses::total          653                       # number of overall MSHR misses (Count)
system.cpu.icache.demandMshrMissLatency::cpu.inst     83024000                       # number of demand (read+write) MSHR miss ticks (Tick)
system.cpu.icache.demandMshrMissLatency::total     83024000                       # number of demand (read+write) MSHR miss ticks (Tick)
system.cpu.icache.overallMshrMissLatency::cpu.inst     83024000                       # number of overall MSHR miss ticks (Tick)
system.cpu.icache.overallMshrMissLatency::total     83024000                       # number of overall MSHR miss ticks (Tick)
system.cpu.icache.demandMshrMissRate::cpu.inst     0.000007                       # mshr miss ratio for demand accesses (Ratio)
system.cpu.icache.demandMshrMissRate::total     0.000007                       # mshr miss ratio for demand accesses (Ratio)
system.cpu.icache.overallMshrMissRate::cpu.inst     0.000007                       # mshr miss ratio for overall accesses (Ratio)
system.cpu.icache.overallMshrMissRate::total     0.000007                       # mshr miss ratio for overall accesses (Ratio)
system.cpu.icache.demandAvgMshrMissLatency::cpu.inst 127142.419602                       # average overall mshr miss latency ((Cycle/Count))
system.cpu.icache.demandAvgMshrMissLatency::total 127142.419602                       # average overall mshr miss latency ((Cycle/Count))
system.cpu.icache.overallAvgMshrMissLatency::cpu.inst 127142.419602                       # average overall mshr miss latency ((Cycle/Count))
system.cpu.icache.overallAvgMshrMissLatency::total 127142.419602                       # average overall mshr miss latency ((Cycle/Count))
system.cpu.icache.replacements                    421                       # number of replacements (Count)
system.cpu.icache.ReadReq.hits::cpu.inst     99628430                       # number of ReadReq hits (Count)
system.cpu.icache.ReadReq.hits::total        99628430                       # number of ReadReq hits (Count)
system.cpu.icache.ReadReq.misses::cpu.inst          653                       # number of ReadReq misses (Count)
system.cpu.icache.ReadReq.misses::total           653                       # number of ReadReq misses (Count)
system.cpu.icache.ReadReq.missLatency::cpu.inst     84330000                       # number of ReadReq miss ticks (Tick)
system.cpu.icache.ReadReq.missLatency::total     84330000                       # number of ReadReq miss ticks (Tick)
system.cpu.icache.ReadReq.accesses::cpu.inst     99629083                       # number of ReadReq accesses(hits+misses) (Count)
system.cpu.icache.ReadReq.accesses::total     99629083                       # number of ReadReq accesses(hits+misses) (Count)
system.cpu.icache.ReadReq.missRate::cpu.inst     0.000007                       # miss rate for ReadReq accesses (Ratio)
system.cpu.icache.ReadReq.missRate::total     0.000007                       # miss rate for ReadReq accesses (Ratio)
system.cpu.icache.ReadReq.avgMissLatency::cpu.inst 129142.419602                       # average ReadReq miss latency ((Tick/Count))
system.cpu.icache.ReadReq.avgMissLatency::total 129142.419602                       # average ReadReq miss latency ((Tick/Count))
system.cpu.icache.ReadReq.mshrMisses::cpu.inst          653                       # number of ReadReq MSHR misses (Count)
system.cpu.icache.ReadReq.mshrMisses::total          653                       # number of ReadReq MSHR misses (Count)
system.cpu.icache.ReadReq.mshrMissLatency::cpu.inst     83024000                       # number of ReadReq MSHR miss ticks (Tick)
system.cpu.icache.ReadReq.mshrMissLatency::total     83024000                       # number of ReadReq MSHR miss ticks (Tick)
system.cpu.icache.ReadReq.mshrMissRate::cpu.inst     0.000007                       # mshr miss rate for ReadReq accesses (Ratio)
system.cpu.icache.ReadReq.mshrMissRate::total     0.000007                       # mshr miss rate for ReadReq accesses (Ratio)
system.cpu.icache.ReadReq.avgMshrMissLatency::cpu.inst 127142.419602                       # average ReadReq mshr miss latency ((Tick/Count))
system.cpu.icache.ReadReq.avgMshrMissLatency::total 127142.419602                       # average ReadReq mshr miss latency ((Tick/Count))
system.cpu.icache.power_state.pwrStateResidencyTicks::UNDEFINED 310959427000                       # Cumulative time (in ticks) in various power states (Tick)
system.cpu.icache.tags.tagsInUse           220.950524                       # Average ticks per tags in use ((Tick/Count))
system.cpu.icache.tags.totalRefs             99629083                       # Total number of references to valid blocks. (Count)
system.cpu.icache.tags.sampledRefs                653                       # Sample count of references to valid blocks. (Count)
system.cpu.icache.tags.avgRefs           152571.336907                       # Average number of references to valid blocks. ((Count/Count))
system.cpu.icache.tags.warmupTick              149000                       # The tick when the warmup percentage was hit. (Tick)
system.cpu.icache.tags.occupancies::cpu.inst   220.950524                       # Average occupied blocks per tick, per requestor ((Count/Tick))
system.cpu.icache.tags.avgOccs::cpu.inst     0.863088                       # Average percentage of cache occupancy ((Ratio/Tick))
system.cpu.icache.tags.avgOccs::total        0.863088                       # Average percentage of cache occupancy ((Ratio/Tick))
system.cpu.icache.tags.occupanciesTaskId::1024          232                       # Occupied blocks per task id (Count)
system.cpu.icache.tags.ageTaskId_1024::0           40                       # Occupied blocks per task id, per block age (Count)
system.cpu.icache.tags.ageTaskId_1024::1           46                       # Occupied blocks per task id, per block age (Count)
system.cpu.icache.tags.ageTaskId_1024::2            9                       # Occupied blocks per task id, per block age (Count)
system.cpu.icache.tags.ageTaskId_1024::4          137                       # Occupied blocks per task id, per block age (Count)
system.cpu.icache.tags.ratioOccsTaskId::1024     0.906250                       # Ratio of occupied blocks and all blocks, per task id (Ratio)
system.cpu.icache.tags.tagAccesses           99629736                       # Number of tag accesses (Count)
system.cpu.icache.tags.dataAccesses          99629736                       # Number of data accesses (Count)
system.cpu.icache.tags.power_state.pwrStateResidencyTicks::UNDEFINED 310959427000                       # Cumulative time (in ticks) in various power states (Tick)
system.cpu.power_state.pwrStateResidencyTicks::ON 310959427000                       # Cumulative time (in ticks) in various power states (Tick)
system.cpu.thread_0.numInsts                        0                       # Number of Instructions committed (Count)
system.cpu.thread_0.numOps                          0                       # Number of Ops committed (Count)
system.cpu.thread_0.numMemRefs                      0                       # Number of Memory References (Count)
system.cpu.workload.numSyscalls                    12                       # Number of system calls (Count)
system.l2bus.transDist::ReadResp               293597                       # Transaction distribution (Count)
system.l2bus.transDist::WritebackDirty         328571                       # Transaction distribution (Count)
system.l2bus.transDist::CleanEvict               2898                       # Transaction distribution (Count)
system.l2bus.transDist::UpgradeReq               1190                       # Transaction distribution (Count)
system.l2bus.transDist::UpgradeResp              1190                       # Transaction distribution (Count)
system.l2bus.transDist::ReadExReq               33308                       # Transaction distribution (Count)
system.l2bus.transDist::ReadExResp              33308                       # Transaction distribution (Count)
system.l2bus.transDist::ReadSharedReq          293597                       # Transaction distribution (Count)
system.l2bus.pktCount_system.cpu.icache.mem_side_port::system.l2cache.cpu_side_port         1727                       # Packet count per connected requestor and responder (Count)
system.l2bus.pktCount_system.cpu.dcache.mem_side_port::system.l2cache.cpu_side_port       980624                       # Packet count per connected requestor and responder (Count)
system.l2bus.pktCount::total                   982351                       # Packet count per connected requestor and responder (Count)
system.l2bus.pktSize_system.cpu.icache.mem_side_port::system.l2cache.cpu_side_port        41792                       # Cumulative packet size per connected requestor and responder (Byte)
system.l2bus.pktSize_system.cpu.dcache.mem_side_port::system.l2cache.cpu_side_port     41611520                       # Cumulative packet size per connected requestor and responder (Byte)
system.l2bus.pktSize::total                  41653312                       # Cumulative packet size per connected requestor and responder (Byte)
system.l2bus.snoops                              5308                       # Total snoops (Count)
system.l2bus.snoopTraffic                      297152                       # Total snoop traffic (Byte)
system.l2bus.snoopFanout::samples              333403                       # Request fanout histogram (Count)
system.l2bus.snoopFanout::mean               0.000978                       # Request fanout histogram (Count)
system.l2bus.snoopFanout::stdev              0.031254                       # Request fanout histogram (Count)
system.l2bus.snoopFanout::underflows                0      0.00%      0.00% # Request fanout histogram (Count)
system.l2bus.snoopFanout::0                    333077     99.90%     99.90% # Request fanout histogram (Count)
system.l2bus.snoopFanout::1                       326      0.10%    100.00% # Request fanout histogram (Count)
system.l2bus.snoopFanout::2                         0      0.00%    100.00% # Request fanout histogram (Count)
system.l2bus.snoopFanout::overflows                 0      0.00%    100.00% # Request fanout histogram (Count)
system.l2bus.snoopFanout::min_value                 0                       # Request fanout histogram (Count)
system.l2bus.snoopFanout::max_value                 1                       # Request fanout histogram (Count)
system.l2bus.snoopFanout::total                333403                       # Request fanout histogram (Count)
system.l2bus.power_state.pwrStateResidencyTicks::UNDEFINED 310959427000                       # Cumulative time (in ticks) in various power states (Tick)
system.l2bus.reqLayer0.occupancy           1302112000                       # Layer occupancy (ticks) (Tick)
system.l2bus.reqLayer0.utilization                0.0                       # Layer utilization (Ratio)
system.l2bus.respLayer0.occupancy             1959000                       # Layer occupancy (ticks) (Tick)
system.l2bus.respLayer0.utilization               0.0                       # Layer utilization (Ratio)
system.l2bus.respLayer1.occupancy           979946000                       # Layer occupancy (ticks) (Tick)
system.l2bus.respLayer1.utilization               0.0                       # Layer utilization (Ratio)
system.l2bus.snoop_filter.totRequests          654256                       # Total number of requests made to the snoop filter. (Count)
system.l2bus.snoop_filter.hitSingleRequests       327351                       # Number of requests hitting in the snoop filter with a single holder of the requested data. (Count)
system.l2bus.snoop_filter.hitMultiRequests            2                       # Number of requests hitting in the snoop filter with multiple (>1) holders of the requested data. (Count)
system.l2bus.snoop_filter.totSnoops               324                       # Total number of snoops made to the snoop filter. (Count)
system.l2bus.snoop_filter.hitSingleSnoops          324                       # Number of snoops hitting in the snoop filter with a single holder of the requested data. (Count)
system.l2bus.snoop_filter.hitMultiSnoops            0                       # Number of snoops hitting in the snoop filter with multiple (>1) holders of the requested data. (Count)
system.l2cache.demandHits::cpu.inst                72                       # number of demand (read+write) hits (Count)
system.l2cache.demandHits::cpu.data            319574                       # number of demand (read+write) hits (Count)
system.l2cache.demandHits::total               319646                       # number of demand (read+write) hits (Count)
system.l2cache.overallHits::cpu.inst               72                       # number of overall hits (Count)
system.l2cache.overallHits::cpu.data           319574                       # number of overall hits (Count)
system.l2cache.overallHits::total              319646                       # number of overall hits (Count)
system.l2cache.demandMisses::cpu.inst             581                       # number of demand (read+write) misses (Count)
system.l2cache.demandMisses::cpu.data            6678                       # number of demand (read+write) misses (Count)
system.l2cache.demandMisses::total               7259                       # number of demand (read+write) misses (Count)
system.l2cache.overallMisses::cpu.inst            581                       # number of overall misses (Count)
system.l2cache.overallMisses::cpu.data           6678                       # number of overall misses (Count)
system.l2cache.overallMisses::total              7259                       # number of overall misses (Count)
system.l2cache.demandMissLatency::cpu.inst     79550000                       # number of demand (read+write) miss ticks (Tick)
system.l2cache.demandMissLatency::cpu.data    689919000                       # number of demand (read+write) miss ticks (Tick)
system.l2cache.demandMissLatency::total     769469000                       # number of demand (read+write) miss ticks (Tick)
system.l2cache.overallMissLatency::cpu.inst     79550000                       # number of overall miss ticks (Tick)
system.l2cache.overallMissLatency::cpu.data    689919000                       # number of overall miss ticks (Tick)
system.l2cache.overallMissLatency::total    769469000                       # number of overall miss ticks (Tick)
system.l2cache.demandAccesses::cpu.inst           653                       # number of demand (read+write) accesses (Count)
system.l2cache.demandAccesses::cpu.data        326252                       # number of demand (read+write) accesses (Count)
system.l2cache.demandAccesses::total           326905                       # number of demand (read+write) accesses (Count)
system.l2cache.overallAccesses::cpu.inst          653                       # number of overall (read+write) accesses (Count)
system.l2cache.overallAccesses::cpu.data       326252                       # number of overall (read+write) accesses (Count)
system.l2cache.overallAccesses::total          326905                       # number of overall (read+write) accesses (Count)
system.l2cache.demandMissRate::cpu.inst      0.889740                       # miss rate for demand accesses (Ratio)
system.l2cache.demandMissRate::cpu.data      0.020469                       # miss rate for demand accesses (Ratio)
system.l2cache.demandMissRate::total         0.022205                       # miss rate for demand accesses (Ratio)
system.l2cache.overallMissRate::cpu.inst     0.889740                       # miss rate for overall accesses (Ratio)
system.l2cache.overallMissRate::cpu.data     0.020469                       # miss rate for overall accesses (Ratio)
system.l2cache.overallMissRate::total        0.022205                       # miss rate for overall accesses (Ratio)
system.l2cache.demandAvgMissLatency::cpu.inst 136919.104991                       # average overall miss latency ((Cycle/Count))
system.l2cache.demandAvgMissLatency::cpu.data 103312.219227                       # average overall miss latency ((Cycle/Count))
system.l2cache.demandAvgMissLatency::total 106002.066400                       # average overall miss latency ((Cycle/Count))
system.l2cache.overallAvgMissLatency::cpu.inst 136919.104991                       # average overall miss latency ((Cycle/Count))
system.l2cache.overallAvgMissLatency::cpu.data 103312.219227                       # average overall miss latency ((Cycle/Count))
system.l2cache.overallAvgMissLatency::total 106002.066400                       # average overall miss latency ((Cycle/Count))
system.l2cache.blockedCycles::no_mshrs              0                       # number of cycles access was blocked (Cycle)
system.l2cache.blockedCycles::no_targets            0                       # number of cycles access was blocked (Cycle)
system.l2cache.blockedCauses::no_mshrs              0                       # number of times access was blocked (Count)
system.l2cache.blockedCauses::no_targets            0                       # number of times access was blocked (Count)
system.l2cache.avgBlocked::no_mshrs               nan                       # average number of cycles each access was blocked ((Cycle/Count))
system.l2cache.avgBlocked::no_targets             nan                       # average number of cycles each access was blocked ((Cycle/Count))
system.l2cache.writebacks::writebacks            4643                       # number of writebacks (Count)
system.l2cache.writebacks::total                 4643                       # number of writebacks (Count)
system.l2cache.demandMshrMisses::cpu.inst          581                       # number of demand (read+write) MSHR misses (Count)
system.l2cache.demandMshrMisses::cpu.data         6678                       # number of demand (read+write) MSHR misses (Count)
system.l2cache.demandMshrMisses::total           7259                       # number of demand (read+write) MSHR misses (Count)
system.l2cache.overallMshrMisses::cpu.inst          581                       # number of overall MSHR misses (Count)
system.l2cache.overallMshrMisses::cpu.data         6678                       # number of overall MSHR misses (Count)
system.l2cache.overallMshrMisses::total          7259                       # number of overall MSHR misses (Count)
system.l2cache.demandMshrMissLatency::cpu.inst     67930000                       # number of demand (read+write) MSHR miss ticks (Tick)
system.l2cache.demandMshrMissLatency::cpu.data    556359000                       # number of demand (read+write) MSHR miss ticks (Tick)
system.l2cache.demandMshrMissLatency::total    624289000                       # number of demand (read+write) MSHR miss ticks (Tick)
system.l2cache.overallMshrMissLatency::cpu.inst     67930000                       # number of overall MSHR miss ticks (Tick)
system.l2cache.overallMshrMissLatency::cpu.data    556359000                       # number of overall MSHR miss ticks (Tick)
system.l2cache.overallMshrMissLatency::total    624289000                       # number of overall MSHR miss ticks (Tick)
system.l2cache.demandMshrMissRate::cpu.inst     0.889740                       # mshr miss ratio for demand accesses (Ratio)
system.l2cache.demandMshrMissRate::cpu.data     0.020469                       # mshr miss ratio for demand accesses (Ratio)
system.l2cache.demandMshrMissRate::total     0.022205                       # mshr miss ratio for demand accesses (Ratio)
system.l2cache.overallMshrMissRate::cpu.inst     0.889740                       # mshr miss ratio for overall accesses (Ratio)
system.l2cache.overallMshrMissRate::cpu.data     0.020469                       # mshr miss ratio for overall accesses (Ratio)
system.l2cache.overallMshrMissRate::total     0.022205                       # mshr miss ratio for overall accesses (Ratio)
system.l2cache.demandAvgMshrMissLatency::cpu.inst 116919.104991                       # average overall mshr miss latency ((Cycle/Count))
system.l2cache.demandAvgMshrMissLatency::cpu.data 83312.219227                       # average overall mshr miss latency ((Cycle/Count))
system.l2cache.demandAvgMshrMissLatency::total 86002.066400                       # average overall mshr miss latency ((Cycle/Count))
system.l2cache.overallAvgMshrMissLatency::cpu.inst 116919.104991                       # average overall mshr miss latency ((Cycle/Count))
system.l2cache.overallAvgMshrMissLatency::cpu.data 83312.219227                       # average overall mshr miss latency ((Cycle/Count))
system.l2cache.overallAvgMshrMissLatency::total 86002.066400                       # average overall mshr miss latency ((Cycle/Count))
system.l2cache.replacements                      5216                       # number of replacements (Count)
system.l2cache.CleanEvict.mshrMisses::writebacks          110                       # number of CleanEvict MSHR misses (Count)
system.l2cache.CleanEvict.mshrMisses::total          110                       # number of CleanEvict MSHR misses (Count)
system.l2cache.CleanEvict.mshrMissRate::writebacks          inf                       # mshr miss rate for CleanEvict accesses (Ratio)
system.l2cache.CleanEvict.mshrMissRate::total          inf                       # mshr miss rate for CleanEvict accesses (Ratio)
system.l2cache.ReadExReq.hits::cpu.data         29732                       # number of ReadExReq hits (Count)
system.l2cache.ReadExReq.hits::total            29732                       # number of ReadExReq hits (Count)
system.l2cache.ReadExReq.misses::cpu.data         3576                       # number of ReadExReq misses (Count)
system.l2cache.ReadExReq.misses::total           3576                       # number of ReadExReq misses (Count)
system.l2cache.ReadExReq.missLatency::cpu.data    483076000                       # number of ReadExReq miss ticks (Tick)
system.l2cache.ReadExReq.missLatency::total    483076000                       # number of ReadExReq miss ticks (Tick)
system.l2cache.ReadExReq.accesses::cpu.data        33308                       # number of ReadExReq accesses(hits+misses) (Count)
system.l2cache.ReadExReq.accesses::total        33308                       # number of ReadExReq accesses(hits+misses) (Count)
system.l2cache.ReadExReq.missRate::cpu.data     0.107362                       # miss rate for ReadExReq accesses (Ratio)
system.l2cache.ReadExReq.missRate::total     0.107362                       # miss rate for ReadExReq accesses (Ratio)
system.l2cache.ReadExReq.avgMissLatency::cpu.data 135088.366890                       # average ReadExReq miss latency ((Tick/Count))
system.l2cache.ReadExReq.avgMissLatency::total 135088.366890                       # average ReadExReq miss latency ((Tick/Count))
system.l2cache.ReadExReq.mshrMisses::cpu.data         3576                       # number of ReadExReq MSHR misses (Count)
system.l2cache.ReadExReq.mshrMisses::total         3576                       # number of ReadExReq MSHR misses (Count)
system.l2cache.ReadExReq.mshrMissLatency::cpu.data    411556000                       # number of ReadExReq MSHR miss ticks (Tick)
system.l2cache.ReadExReq.mshrMissLatency::total    411556000                       # number of ReadExReq MSHR miss ticks (Tick)
system.l2cache.ReadExReq.mshrMissRate::cpu.data     0.107362                       # mshr miss rate for ReadExReq accesses (Ratio)
system.l2cache.ReadExReq.mshrMissRate::total     0.107362                       # mshr miss rate for ReadExReq accesses (Ratio)
system.l2cache.ReadExReq.avgMshrMissLatency::cpu.data 115088.366890                       # average ReadExReq mshr miss latency ((Tick/Count))
system.l2cache.ReadExReq.avgMshrMissLatency::total 115088.366890                       # average ReadExReq mshr miss latency ((Tick/Count))
system.l2cache.ReadSharedReq.hits::cpu.inst           72                       # number of ReadSharedReq hits (Count)
system.l2cache.ReadSharedReq.hits::cpu.data       289842                       # number of ReadSharedReq hits (Count)
system.l2cache.ReadSharedReq.hits::total       289914                       # number of ReadSharedReq hits (Count)
system.l2cache.ReadSharedReq.misses::cpu.inst          581                       # number of ReadSharedReq misses (Count)
system.l2cache.ReadSharedReq.misses::cpu.data         3102                       # number of ReadSharedReq misses (Count)
system.l2cache.ReadSharedReq.misses::total         3683                       # number of ReadSharedReq misses (Count)
system.l2cache.ReadSharedReq.missLatency::cpu.inst     79550000                       # number of ReadSharedReq miss ticks (Tick)
system.l2cache.ReadSharedReq.missLatency::cpu.data    206843000                       # number of ReadSharedReq miss ticks (Tick)
system.l2cache.ReadSharedReq.missLatency::total    286393000                       # number of ReadSharedReq miss ticks (Tick)
system.l2cache.ReadSharedReq.accesses::cpu.inst          653                       # number of ReadSharedReq accesses(hits+misses) (Count)
system.l2cache.ReadSharedReq.accesses::cpu.data       292944                       # number of ReadSharedReq accesses(hits+misses) (Count)
system.l2cache.ReadSharedReq.accesses::total       293597                       # number of ReadSharedReq accesses(hits+misses) (Count)
system.l2cache.ReadSharedReq.missRate::cpu.inst     0.889740                       # miss rate for ReadSharedReq accesses (Ratio)
system.l2cache.ReadSharedReq.missRate::cpu.data     0.010589                       # miss rate for ReadSharedReq accesses (Ratio)
system.l2cache.ReadSharedReq.missRate::total     0.012544                       # miss rate for ReadSharedReq accesses (Ratio)
system.l2cache.ReadSharedReq.avgMissLatency::cpu.inst 136919.104991                       # average ReadSharedReq miss latency ((Tick/Count))
system.l2cache.ReadSharedReq.avgMissLatency::cpu.data 66680.528691                       # average ReadSharedReq miss latency ((Tick/Count))
system.l2cache.ReadSharedReq.avgMissLatency::total 77760.792832                       # average ReadSharedReq miss latency ((Tick/Count))
system.l2cache.ReadSharedReq.mshrMisses::cpu.inst          581                       # number of ReadSharedReq MSHR misses (Count)
system.l2cache.ReadSharedReq.mshrMisses::cpu.data         3102                       # number of ReadSharedReq MSHR misses (Count)
system.l2cache.ReadSharedReq.mshrMisses::total         3683                       # number of ReadSharedReq MSHR misses (Count)
system.l2cache.ReadSharedReq.mshrMissLatency::cpu.inst     67930000                       # number of ReadSharedReq MSHR miss ticks (Tick)
system.l2cache.ReadSharedReq.mshrMissLatency::cpu.data    144803000                       # number of ReadSharedReq MSHR miss ticks (Tick)
system.l2cache.ReadSharedReq.mshrMissLatency::total    212733000                       # number of ReadSharedReq MSHR miss ticks (Tick)
system.l2cache.ReadSharedReq.mshrMissRate::cpu.inst     0.889740                       # mshr miss rate for ReadSharedReq accesses (Ratio)
system.l2cache.ReadSharedReq.mshrMissRate::cpu.data     0.010589                       # mshr miss rate for ReadSharedReq accesses (Ratio)
system.l2cache.ReadSharedReq.mshrMissRate::total     0.012544                       # mshr miss rate for ReadSharedReq accesses (Ratio)
system.l2cache.ReadSharedReq.avgMshrMissLatency::cpu.inst 116919.104991                       # average ReadSharedReq mshr miss latency ((Tick/Count))
system.l2cache.ReadSharedReq.avgMshrMissLatency::cpu.data 46680.528691                       # average ReadSharedReq mshr miss latency ((Tick/Count))
system.l2cache.ReadSharedReq.avgMshrMissLatency::total 57760.792832                       # average ReadSharedReq mshr miss latency ((Tick/Count))
system.l2cache.UpgradeReq.hits::cpu.data         1190                       # number of UpgradeReq hits (Count)
system.l2cache.UpgradeReq.hits::total            1190                       # number of UpgradeReq hits (Count)
system.l2cache.UpgradeReq.accesses::cpu.data         1190                       # number of UpgradeReq accesses(hits+misses) (Count)
system.l2cache.UpgradeReq.accesses::total         1190                       # number of UpgradeReq accesses(hits+misses) (Count)
system.l2cache.WritebackDirty.hits::writebacks       323928                       # number of WritebackDirty hits (Count)
system.l2cache.WritebackDirty.hits::total       323928                       # number of WritebackDirty hits (Count)
system.l2cache.WritebackDirty.accesses::writebacks       323928                       # number of WritebackDirty accesses(hits+misses) (Count)
system.l2cache.WritebackDirty.accesses::total       323928                       # number of WritebackDirty accesses(hits+misses) (Count)
system.l2cache.power_state.pwrStateResidencyTicks::UNDEFINED 310959427000                       # Cumulative time (in ticks) in various power states (Tick)
system.l2cache.tags.tagsInUse             2044.480233                       # Average ticks per tags in use ((Tick/Count))
system.l2cache.tags.totalRefs                  654144                       # Total number of references to valid blocks. (Count)
system.l2cache.tags.sampledRefs                  7264                       # Sample count of references to valid blocks. (Count)
system.l2cache.tags.avgRefs                 90.052863                       # Average number of references to valid blocks. ((Count/Count))
system.l2cache.tags.warmupTick                 128000                       # The tick when the warmup percentage was hit. (Tick)
system.l2cache.tags.occupancies::writebacks     1.138022                       # Average occupied blocks per tick, per requestor ((Count/Tick))
system.l2cache.tags.occupancies::cpu.inst     4.633812                       # Average occupied blocks per tick, per requestor ((Count/Tick))
system.l2cache.tags.occupancies::cpu.data  2038.708399                       # Average occupied blocks per tick, per requestor ((Count/Tick))
system.l2cache.tags.avgOccs::writebacks      0.000556                       # Average percentage of cache occupancy ((Ratio/Tick))
system.l2cache.tags.avgOccs::cpu.inst        0.002263                       # Average percentage of cache occupancy ((Ratio/Tick))
system.l2cache.tags.avgOccs::cpu.data        0.995463                       # Average percentage of cache occupancy ((Ratio/Tick))
system.l2cache.tags.avgOccs::total           0.998281                       # Average percentage of cache occupancy ((Ratio/Tick))
system.l2cache.tags.occupanciesTaskId::1024         2048                       # Occupied blocks per task id (Count)
system.l2cache.tags.ageTaskId_1024::0              67                       # Occupied blocks per task id, per block age (Count)
system.l2cache.tags.ageTaskId_1024::1             114                       # Occupied blocks per task id, per block age (Count)
system.l2cache.tags.ageTaskId_1024::2             225                       # Occupied blocks per task id, per block age (Count)
system.l2cache.tags.ageTaskId_1024::3              49                       # Occupied blocks per task id, per block age (Count)
system.l2cache.tags.ageTaskId_1024::4            1593                       # Occupied blocks per task id, per block age (Count)
system.l2cache.tags.ratioOccsTaskId::1024            1                       # Ratio of occupied blocks and all blocks, per task id (Ratio)
system.l2cache.tags.tagAccesses               2624280                       # Number of tag accesses (Count)
system.l2cache.tags.dataAccesses              2624280                       # Number of data accesses (Count)
system.l2cache.tags.power_state.pwrStateResidencyTicks::UNDEFINED 310959427000                       # Cumulative time (in ticks) in various power states (Tick)
system.l3bus.transDist::ReadResp                 3683                       # Transaction distribution (Count)
system.l3bus.transDist::WritebackDirty           4647                       # Transaction distribution (Count)
system.l3bus.transDist::CleanEvict                581                       # Transaction distribution (Count)
system.l3bus.transDist::ReadExReq                3576                       # Transaction distribution (Count)
system.l3bus.transDist::ReadExResp               3576                       # Transaction distribution (Count)
system.l3bus.transDist::ReadSharedReq            3683                       # Transaction distribution (Count)
system.l3bus.pktCount_system.l2cache.mem_side_port::system.l3cache.cpu_side_port        19588                       # Packet count per connected requestor and responder (Count)
system.l3bus.pktSize_system.l2cache.mem_side_port::system.l3cache.cpu_side_port       761728                       # Cumulative packet size per connected requestor and responder (Byte)
system.l3bus.snoops                               158                       # Total snoops (Count)
system.l3bus.snoopTraffic                         256                       # Total snoop traffic (Byte)
system.l3bus.snoopFanout::samples                7417                       # Request fanout histogram (Count)
system.l3bus.snoopFanout::mean               0.012404                       # Request fanout histogram (Count)
system.l3bus.snoopFanout::stdev              0.110688                       # Request fanout histogram (Count)
system.l3bus.snoopFanout::underflows                0      0.00%      0.00% # Request fanout histogram (Count)
system.l3bus.snoopFanout::0                      7325     98.76%     98.76% # Request fanout histogram (Count)
system.l3bus.snoopFanout::1                        92      1.24%    100.00% # Request fanout histogram (Count)
system.l3bus.snoopFanout::overflows                 0      0.00%    100.00% # Request fanout histogram (Count)
system.l3bus.snoopFanout::min_value                 0                       # Request fanout histogram (Count)
system.l3bus.snoopFanout::max_value                 1                       # Request fanout histogram (Count)
system.l3bus.snoopFanout::total                  7417                       # Request fanout histogram (Count)
system.l3bus.power_state.pwrStateResidencyTicks::UNDEFINED 310959427000                       # Cumulative time (in ticks) in various power states (Tick)
system.l3bus.reqLayer0.occupancy             21615000                       # Layer occupancy (ticks) (Tick)
system.l3bus.reqLayer0.utilization                0.0                       # Layer utilization (Ratio)
system.l3bus.respLayer0.occupancy            21777000                       # Layer occupancy (ticks) (Tick)
system.l3bus.respLayer0.utilization               0.0                       # Layer utilization (Ratio)
system.l3bus.snoop_filter.totRequests           12329                       # Total number of requests made to the snoop filter. (Count)
system.l3bus.snoop_filter.hitSingleRequests         5070                       # Number of requests hitting in the snoop filter with a single holder of the requested data. (Count)
system.l3bus.snoop_filter.hitMultiRequests            0                       # Number of requests hitting in the snoop filter with multiple (>1) holders of the requested data. (Count)
system.l3bus.snoop_filter.totSnoops                92                       # Total number of snoops made to the snoop filter. (Count)
system.l3bus.snoop_filter.hitSingleSnoops           92                       # Number of snoops hitting in the snoop filter with a single holder of the requested data. (Count)
system.l3bus.snoop_filter.hitMultiSnoops            0                       # Number of snoops hitting in the snoop filter with multiple (>1) holders of the requested data. (Count)
system.l3cache.demandHits::cpu.inst                18                       # number of demand (read+write) hits (Count)
system.l3cache.demandHits::cpu.data              3172                       # number of demand (read+write) hits (Count)
system.l3cache.demandHits::total                 3190                       # number of demand (read+write) hits (Count)
system.l3cache.overallHits::cpu.inst               18                       # number of overall hits (Count)
system.l3cache.overallHits::cpu.data             3172                       # number of overall hits (Count)
system.l3cache.overallHits::total                3190                       # number of overall hits (Count)
system.l3cache.demandMisses::cpu.inst             563                       # number of demand (read+write) misses (Count)
system.l3cache.demandMisses::cpu.data            3506                       # number of demand (read+write) misses (Count)
system.l3cache.demandMisses::total               4069                       # number of demand (read+write) misses (Count)
system.l3cache.overallMisses::cpu.inst            563                       # number of overall misses (Count)
system.l3cache.overallMisses::cpu.data           3506                       # number of overall misses (Count)
system.l3cache.overallMisses::total              4069                       # number of overall misses (Count)
system.l3cache.demandMissLatency::cpu.inst     54770000                       # number of demand (read+write) miss ticks (Tick)
system.l3cache.demandMissLatency::cpu.data    342831000                       # number of demand (read+write) miss ticks (Tick)
system.l3cache.demandMissLatency::total     397601000                       # number of demand (read+write) miss ticks (Tick)
system.l3cache.overallMissLatency::cpu.inst     54770000                       # number of overall miss ticks (Tick)
system.l3cache.overallMissLatency::cpu.data    342831000                       # number of overall miss ticks (Tick)
system.l3cache.overallMissLatency::total    397601000                       # number of overall miss ticks (Tick)
system.l3cache.demandAccesses::cpu.inst           581                       # number of demand (read+write) accesses (Count)
system.l3cache.demandAccesses::cpu.data          6678                       # number of demand (read+write) accesses (Count)
system.l3cache.demandAccesses::total             7259                       # number of demand (read+write) accesses (Count)
system.l3cache.overallAccesses::cpu.inst          581                       # number of overall (read+write) accesses (Count)
system.l3cache.overallAccesses::cpu.data         6678                       # number of overall (read+write) accesses (Count)
system.l3cache.overallAccesses::total            7259                       # number of overall (read+write) accesses (Count)
system.l3cache.demandMissRate::cpu.inst      0.969019                       # miss rate for demand accesses (Ratio)
system.l3cache.demandMissRate::cpu.data      0.525007                       # miss rate for demand accesses (Ratio)
system.l3cache.demandMissRate::total         0.560546                       # miss rate for demand accesses (Ratio)
system.l3cache.overallMissRate::cpu.inst     0.969019                       # miss rate for overall accesses (Ratio)
system.l3cache.overallMissRate::cpu.data     0.525007                       # miss rate for overall accesses (Ratio)
system.l3cache.overallMissRate::total        0.560546                       # miss rate for overall accesses (Ratio)
system.l3cache.demandAvgMissLatency::cpu.inst 97282.415631                       # average overall miss latency ((Cycle/Count))
system.l3cache.demandAvgMissLatency::cpu.data 97784.084427                       # average overall miss latency ((Cycle/Count))
system.l3cache.demandAvgMissLatency::total 97714.671910                       # average overall miss latency ((Cycle/Count))
system.l3cache.overallAvgMissLatency::cpu.inst 97282.415631                       # average overall miss latency ((Cycle/Count))
system.l3cache.overallAvgMissLatency::cpu.data 97784.084427                       # average overall miss latency ((Cycle/Count))
system.l3cache.overallAvgMissLatency::total 97714.671910                       # average overall miss latency ((Cycle/Count))
system.l3cache.blockedCycles::no_mshrs              0                       # number of cycles access was blocked (Cycle)
system.l3cache.blockedCycles::no_targets            0                       # number of cycles access was blocked (Cycle)
system.l3cache.blockedCauses::no_mshrs              0                       # number of times access was blocked (Count)
system.l3cache.blockedCauses::no_targets            0                       # number of times access was blocked (Count)
system.l3cache.avgBlocked::no_mshrs               nan                       # average number of cycles each access was blocked ((Cycle/Count))
system.l3cache.avgBlocked::no_targets             nan                       # average number of cycles each access was blocked ((Cycle/Count))
system.l3cache.writebacks::writebacks               4                       # number of writebacks (Count)
system.l3cache.writebacks::total                    4                       # number of writebacks (Count)
system.l3cache.demandMshrMisses::cpu.inst          563                       # number of demand (read+write) MSHR misses (Count)
system.l3cache.demandMshrMisses::cpu.data         3506                       # number of demand (read+write) MSHR misses (Count)
system.l3cache.demandMshrMisses::total           4069                       # number of demand (read+write) MSHR misses (Count)
system.l3cache.overallMshrMisses::cpu.inst          563                       # number of overall MSHR misses (Count)
system.l3cache.overallMshrMisses::cpu.data         3506                       # number of overall MSHR misses (Count)
system.l3cache.overallMshrMisses::total          4069                       # number of overall MSHR misses (Count)
system.l3cache.demandMshrMissLatency::cpu.inst     43510000                       # number of demand (read+write) MSHR miss ticks (Tick)
system.l3cache.demandMshrMissLatency::cpu.data    272711000                       # number of demand (read+write) MSHR miss ticks (Tick)
system.l3cache.demandMshrMissLatency::total    316221000                       # number of demand (read+write) MSHR miss ticks (Tick)
system.l3cache.overallMshrMissLatency::cpu.inst     43510000                       # number of overall MSHR miss ticks (Tick)
system.l3cache.overallMshrMissLatency::cpu.data    272711000                       # number of overall MSHR miss ticks (Tick)
system.l3cache.overallMshrMissLatency::total    316221000                       # number of overall MSHR miss ticks (Tick)
system.l3cache.demandMshrMissRate::cpu.inst     0.969019                       # mshr miss ratio for demand accesses (Ratio)
system.l3cache.demandMshrMissRate::cpu.data     0.525007                       # mshr miss ratio for demand accesses (Ratio)
system.l3cache.demandMshrMissRate::total     0.560546                       # mshr miss ratio for demand accesses (Ratio)
system.l3cache.overallMshrMissRate::cpu.inst     0.969019                       # mshr miss ratio for overall accesses (Ratio)
system.l3cache.overallMshrMissRate::cpu.data     0.525007                       # mshr miss ratio for overall accesses (Ratio)
system.l3cache.overallMshrMissRate::total     0.560546                       # mshr miss ratio for overall accesses (Ratio)
system.l3cache.demandAvgMshrMissLatency::cpu.inst 77282.415631                       # average overall mshr miss latency ((Cycle/Count))
system.l3cache.demandAvgMshrMissLatency::cpu.data 77784.084427                       # average overall mshr miss latency ((Cycle/Count))
system.l3cache.demandAvgMshrMissLatency::total 77714.671910                       # average overall mshr miss latency ((Cycle/Count))
system.l3cache.overallAvgMshrMissLatency::cpu.inst 77282.415631                       # average overall mshr miss latency ((Cycle/Count))
system.l3cache.overallAvgMshrMissLatency::cpu.data 77784.084427                       # average overall mshr miss latency ((Cycle/Count))
system.l3cache.overallAvgMshrMissLatency::total 77714.671910                       # average overall mshr miss latency ((Cycle/Count))
system.l3cache.replacements                       158                       # number of replacements (Count)
system.l3cache.CleanEvict.mshrMisses::writebacks           43                       # number of CleanEvict MSHR misses (Count)
system.l3cache.CleanEvict.mshrMisses::total           43                       # number of CleanEvict MSHR misses (Count)
system.l3cache.CleanEvict.mshrMissRate::writebacks          inf                       # mshr miss rate for CleanEvict accesses (Ratio)
system.l3cache.CleanEvict.mshrMissRate::total          inf                       # mshr miss rate for CleanEvict accesses (Ratio)
system.l3cache.ReadExReq.hits::cpu.data           203                       # number of ReadExReq hits (Count)
system.l3cache.ReadExReq.hits::total              203                       # number of ReadExReq hits (Count)
system.l3cache.ReadExReq.misses::cpu.data         3373                       # number of ReadExReq misses (Count)
system.l3cache.ReadExReq.misses::total           3373                       # number of ReadExReq misses (Count)
system.l3cache.ReadExReq.missLatency::cpu.data    328621000                       # number of ReadExReq miss ticks (Tick)
system.l3cache.ReadExReq.missLatency::total    328621000                       # number of ReadExReq miss ticks (Tick)
system.l3cache.ReadExReq.accesses::cpu.data         3576                       # number of ReadExReq accesses(hits+misses) (Count)
system.l3cache.ReadExReq.accesses::total         3576                       # number of ReadExReq accesses(hits+misses) (Count)
system.l3cache.ReadExReq.missRate::cpu.data     0.943233                       # miss rate for ReadExReq accesses (Ratio)
system.l3cache.ReadExReq.missRate::total     0.943233                       # miss rate for ReadExReq accesses (Ratio)
system.l3cache.ReadExReq.avgMissLatency::cpu.data 97426.919656                       # average ReadExReq miss latency ((Tick/Count))
system.l3cache.ReadExReq.avgMissLatency::total 97426.919656                       # average ReadExReq miss latency ((Tick/Count))
system.l3cache.ReadExReq.mshrMisses::cpu.data         3373                       # number of ReadExReq MSHR misses (Count)
system.l3cache.ReadExReq.mshrMisses::total         3373                       # number of ReadExReq MSHR misses (Count)
system.l3cache.ReadExReq.mshrMissLatency::cpu.data    261161000                       # number of ReadExReq MSHR miss ticks (Tick)
system.l3cache.ReadExReq.mshrMissLatency::total    261161000                       # number of ReadExReq MSHR miss ticks (Tick)
system.l3cache.ReadExReq.mshrMissRate::cpu.data     0.943233                       # mshr miss rate for ReadExReq accesses (Ratio)
system.l3cache.ReadExReq.mshrMissRate::total     0.943233                       # mshr miss rate for ReadExReq accesses (Ratio)
system.l3cache.ReadExReq.avgMshrMissLatency::cpu.data 77426.919656                       # average ReadExReq mshr miss latency ((Tick/Count))
system.l3cache.ReadExReq.avgMshrMissLatency::total 77426.919656                       # average ReadExReq mshr miss latency ((Tick/Count))
system.l3cache.ReadSharedReq.hits::cpu.inst           18                       # number of ReadSharedReq hits (Count)
system.l3cache.ReadSharedReq.hits::cpu.data         2969                       # number of ReadSharedReq hits (Count)
system.l3cache.ReadSharedReq.hits::total         2987                       # number of ReadSharedReq hits (Count)
system.l3cache.ReadSharedReq.misses::cpu.inst          563                       # number of ReadSharedReq misses (Count)
system.l3cache.ReadSharedReq.misses::cpu.data          133                       # number of ReadSharedReq misses (Count)
system.l3cache.ReadSharedReq.misses::total          696                       # number of ReadSharedReq misses (Count)
system.l3cache.ReadSharedReq.missLatency::cpu.inst     54770000                       # number of ReadSharedReq miss ticks (Tick)
system.l3cache.ReadSharedReq.missLatency::cpu.data     14210000                       # number of ReadSharedReq miss ticks (Tick)
system.l3cache.ReadSharedReq.missLatency::total     68980000                       # number of ReadSharedReq miss ticks (Tick)
system.l3cache.ReadSharedReq.accesses::cpu.inst          581                       # number of ReadSharedReq accesses(hits+misses) (Count)
system.l3cache.ReadSharedReq.accesses::cpu.data         3102                       # number of ReadSharedReq accesses(hits+misses) (Count)
system.l3cache.ReadSharedReq.accesses::total         3683                       # number of ReadSharedReq accesses(hits+misses) (Count)
[...]
system.mem_ctrl.dram.bytesInstRead::total        36032                       # Number of instructions bytes read from this memory (Byte)
system.mem_ctrl.dram.bytesWritten::writebacks          256                       # Number of bytes written to this memory (Byte)
system.mem_ctrl.dram.bytesWritten::total          256                       # Number of bytes written to this memory (Byte)
system.mem_ctrl.dram.numReads::cpu.inst           563                       # Number of read requests responded to by this memory (Count)
system.mem_ctrl.dram.numReads::cpu.data          3506                       # Number of read requests responded to by this memory (Count)
system.mem_ctrl.dram.numReads::total             4069                       # Number of read requests responded to by this memory (Count)
system.mem_ctrl.dram.numWrites::writebacks            4                       # Number of write requests responded to by this memory (Count)
system.mem_ctrl.dram.numWrites::total               4                       # Number of write requests responded to by this memory (Count)
system.mem_ctrl.dram.bwRead::cpu.inst          115874                       # Total read bandwidth from this memory ((Byte/Second))
system.mem_ctrl.dram.bwRead::cpu.data          721586                       # Total read bandwidth from this memory ((Byte/Second))
system.mem_ctrl.dram.bwRead::total             837460                       # Total read bandwidth from this memory ((Byte/Second))
system.mem_ctrl.dram.bwInstRead::cpu.inst       115874                       # Instruction read bandwidth from this memory ((Byte/Second))
system.mem_ctrl.dram.bwInstRead::total         115874                       # Instruction read bandwidth from this memory ((Byte/Second))
system.mem_ctrl.dram.bwWrite::writebacks          823                       # Write bandwidth from this memory ((Byte/Second))
system.mem_ctrl.dram.bwWrite::total               823                       # Write bandwidth from this memory ((Byte/Second))
system.mem_ctrl.dram.bwTotal::writebacks          823                       # Total bandwidth to/from this memory ((Byte/Second))
system.mem_ctrl.dram.bwTotal::cpu.inst         115874                       # Total bandwidth to/from this memory ((Byte/Second))
system.mem_ctrl.dram.bwTotal::cpu.data         721586                       # Total bandwidth to/from this memory ((Byte/Second))
system.mem_ctrl.dram.bwTotal::total            838283                       # Total bandwidth to/from this memory ((Byte/Second))
system.mem_ctrl.dram.readBursts                  4069                       # Number of DRAM read bursts (Count)
system.mem_ctrl.dram.writeBursts                    0                       # Number of DRAM write bursts (Count)
system.mem_ctrl.dram.perBankRdBursts::0           257                       # Per bank write bursts (Count)
system.mem_ctrl.dram.perBankRdBursts::1           204                       # Per bank write bursts (Count)
system.mem_ctrl.dram.perBankRdBursts::2           185                       # Per bank write bursts (Count)
system.mem_ctrl.dram.perBankRdBursts::3           240                       # Per bank write bursts (Count)
system.mem_ctrl.dram.perBankRdBursts::4           206                       # Per bank write bursts (Count)
system.mem_ctrl.dram.perBankRdBursts::5           239                       # Per bank write bursts (Count)
system.mem_ctrl.dram.perBankRdBursts::6           296                       # Per bank write bursts (Count)
system.mem_ctrl.dram.perBankRdBursts::7           308                       # Per bank write bursts (Count)
system.mem_ctrl.dram.perBankRdBursts::8           270                       # Per bank write bursts (Count)
system.mem_ctrl.dram.perBankRdBursts::9           304                       # Per bank write bursts (Count)
system.mem_ctrl.dram.perBankRdBursts::10          272                       # Per bank write bursts (Count)
system.mem_ctrl.dram.perBankRdBursts::11          306                       # Per bank write bursts (Count)
system.mem_ctrl.dram.perBankRdBursts::12          311                       # Per bank write bursts (Count)
system.mem_ctrl.dram.perBankRdBursts::13          293                       # Per bank write bursts (Count)
system.mem_ctrl.dram.perBankRdBursts::14          201                       # Per bank write bursts (Count)
system.mem_ctrl.dram.perBankRdBursts::15          177                       # Per bank write bursts (Count)
system.mem_ctrl.dram.perBankWrBursts::0             0                       # Per bank write bursts (Count)
system.mem_ctrl.dram.perBankWrBursts::1             0                       # Per bank write bursts (Count)
system.mem_ctrl.dram.perBankWrBursts::2             0                       # Per bank write bursts (Count)
system.mem_ctrl.dram.perBankWrBursts::3             0                       # Per bank write bursts (Count)
system.mem_ctrl.dram.perBankWrBursts::4             0                       # Per bank write bursts (Count)
system.mem_ctrl.dram.perBankWrBursts::5             0                       # Per bank write bursts (Count)
system.mem_ctrl.dram.perBankWrBursts::6             0                       # Per bank write bursts (Count)
system.mem_ctrl.dram.perBankWrBursts::7             0                       # Per bank write bursts (Count)
system.mem_ctrl.dram.perBankWrBursts::8             0                       # Per bank write bursts (Count)
system.mem_ctrl.dram.perBankWrBursts::9             0                       # Per bank write bursts (Count)
system.mem_ctrl.dram.perBankWrBursts::10            0                       # Per bank write bursts (Count)
system.mem_ctrl.dram.perBankWrBursts::11            0                       # Per bank write bursts (Count)
system.mem_ctrl.dram.perBankWrBursts::12            0                       # Per bank write bursts (Count)
system.mem_ctrl.dram.perBankWrBursts::13            0                       # Per bank write bursts (Count)
system.mem_ctrl.dram.perBankWrBursts::14            0                       # Per bank write bursts (Count)
system.mem_ctrl.dram.perBankWrBursts::15            0                       # Per bank write bursts (Count)
system.mem_ctrl.dram.totQLat                 31211750                       # Total ticks spent queuing (Tick)
system.mem_ctrl.dram.totBusLat               20345000                       # Total ticks spent in databus transfers (Tick)
system.mem_ctrl.dram.totMemAccLat           107505500                       # Total ticks spent from burst creation until serviced by the DRAM (Tick)
system.mem_ctrl.dram.avgQLat                  7670.62                       # Average queueing delay per DRAM burst ((Tick/Count))
system.mem_ctrl.dram.avgBusLat                5000.00                       # Average bus latency per DRAM burst ((Tick/Count))
system.mem_ctrl.dram.avgMemAccLat            26420.62                       # Average memory access latency per DRAM burst ((Tick/Count))
system.mem_ctrl.dram.readRowHits                 3369                       # Number of row buffer hits during reads (Count)
system.mem_ctrl.dram.writeRowHits                   0                       # Number of row buffer hits during writes (Count)
system.mem_ctrl.dram.readRowHitRate             82.80                       # Row buffer hit rate for reads (Ratio)
system.mem_ctrl.dram.writeRowHitRate              nan                       # Row buffer hit rate for writes (Ratio)
system.mem_ctrl.dram.bytesPerActivate::samples          692                       # Bytes accessed per row activation (Byte)
system.mem_ctrl.dram.bytesPerActivate::mean   374.104046                       # Bytes accessed per row activation (Byte)
system.mem_ctrl.dram.bytesPerActivate::gmean   277.797696                       # Bytes accessed per row activation (Byte)
system.mem_ctrl.dram.bytesPerActivate::stdev   233.633083                       # Bytes accessed per row activation (Byte)
system.mem_ctrl.dram.bytesPerActivate::0-127          126     18.21%     18.21% # Bytes accessed per row activation (Byte)
system.mem_ctrl.dram.bytesPerActivate::128-255          135     19.51%     37.72% # Bytes accessed per row activation (Byte)
system.mem_ctrl.dram.bytesPerActivate::256-383           47      6.79%     44.51% # Bytes accessed per row activation (Byte)
system.mem_ctrl.dram.bytesPerActivate::384-511           93     13.44%     57.95% # Bytes accessed per row activation (Byte)
system.mem_ctrl.dram.bytesPerActivate::512-639          160     23.12%     81.07% # Bytes accessed per row activation (Byte)
system.mem_ctrl.dram.bytesPerActivate::640-767          120     17.34%     98.41% # Bytes accessed per row activation (Byte)
system.mem_ctrl.dram.bytesPerActivate::768-895            3      0.43%     98.84% # Bytes accessed per row activation (Byte)
system.mem_ctrl.dram.bytesPerActivate::896-1023            2      0.29%     99.13% # Bytes accessed per row activation (Byte)
system.mem_ctrl.dram.bytesPerActivate::1024-1151            6      0.87%    100.00% # Bytes accessed per row activation (Byte)
system.mem_ctrl.dram.bytesPerActivate::total          692                       # Bytes accessed per row activation (Byte)
system.mem_ctrl.dram.bytesRead                 260416                       # Total bytes read (Byte)
system.mem_ctrl.dram.bytesWritten                   0                       # Total bytes written (Byte)
system.mem_ctrl.dram.avgRdBW                 0.837460                       # Average DRAM read bandwidth in MiBytes/s ((Byte/Second))
system.mem_ctrl.dram.avgWrBW                        0                       # Average DRAM write bandwidth in MiBytes/s ((Byte/Second))
system.mem_ctrl.dram.peakBW                  12800.00                       # Theoretical peak bandwidth in MiByte/s ((Byte/Second))
system.mem_ctrl.dram.busUtil                     0.01                       # Data bus utilization in percentage (Ratio)
system.mem_ctrl.dram.busUtilRead                 0.01                       # Data bus utilization in percentage for reads (Ratio)
system.mem_ctrl.dram.busUtilWrite                0.00                       # Data bus utilization in percentage for writes (Ratio)
system.mem_ctrl.dram.pageHitRate                82.80                       # Row buffer hit rate, read and write combined (Ratio)
system.mem_ctrl.dram.power_state.pwrStateResidencyTicks::UNDEFINED 310959427000                       # Cumulative time (in ticks) in various power states (Tick)
system.mem_ctrl.dram.rank0.actEnergy          2641800                       # Energy for activate commands per rank (pJ) (Joule)
system.mem_ctrl.dram.rank0.preEnergy          1392765                       # Energy for precharge commands per rank (pJ) (Joule)
system.mem_ctrl.dram.rank0.readEnergy        13815900                       # Energy for read commands per rank (pJ) (Joule)
system.mem_ctrl.dram.rank0.writeEnergy              0                       # Energy for write commands per rank (pJ) (Joule)
system.mem_ctrl.dram.rank0.refreshEnergy 24546263040.000004                       # Energy for refresh commands per rank (pJ) (Joule)
system.mem_ctrl.dram.rank0.actBackEnergy   5091044490                       # Energy for active background per rank (pJ) (Joule)
system.mem_ctrl.dram.rank0.preBackEnergy 115121224800                       # Energy for precharge background per rank (pJ) (Joule)
system.mem_ctrl.dram.rank0.actPowerDownEnergy            0                       # Energy for active power-down per rank (pJ) (Joule)
system.mem_ctrl.dram.rank0.prePowerDownEnergy            0                       # Energy for precharge power-down per rank (pJ) (Joule)
system.mem_ctrl.dram.rank0.selfRefreshEnergy            0                       # Energy for self refresh per rank (pJ) (Joule)
system.mem_ctrl.dram.rank0.totalEnergy   144776382795                       # Total energy per rank (pJ) (Joule)
system.mem_ctrl.dram.rank0.averagePower    465.579655                       # Core power per rank (mW) (Watt)
system.mem_ctrl.dram.rank0.totalIdleTime            0                       # Total Idle time Per DRAM Rank (Tick)
system.mem_ctrl.dram.rank0.pwrStateTime::IDLE 299242865500                       # Time in different power states (Tick)
system.mem_ctrl.dram.rank0.pwrStateTime::REF  10383360000                       # Time in different power states (Tick)
system.mem_ctrl.dram.rank0.pwrStateTime::SREF            0                       # Time in different power states (Tick)
system.mem_ctrl.dram.rank0.pwrStateTime::PRE_PDN            0                       # Time in different power states (Tick)
system.mem_ctrl.dram.rank0.pwrStateTime::ACT   1333201500                       # Time in different power states (Tick)
system.mem_ctrl.dram.rank0.pwrStateTime::ACT_PDN            0                       # Time in different power states (Tick)
system.mem_ctrl.dram.rank1.actEnergy          2356200                       # Energy for activate commands per rank (pJ) (Joule)
system.mem_ctrl.dram.rank1.preEnergy          1233375                       # Energy for precharge commands per rank (pJ) (Joule)
system.mem_ctrl.dram.rank1.readEnergy        15236760                       # Energy for read commands per rank (pJ) (Joule)
system.mem_ctrl.dram.rank1.writeEnergy              0                       # Energy for write commands per rank (pJ) (Joule)
system.mem_ctrl.dram.rank1.refreshEnergy 24546263040.000004                       # Energy for refresh commands per rank (pJ) (Joule)
system.mem_ctrl.dram.rank1.actBackEnergy   5212382100                       # Energy for active background per rank (pJ) (Joule)
system.mem_ctrl.dram.rank1.preBackEnergy 115019045760                       # Energy for precharge background per rank (pJ) (Joule)
system.mem_ctrl.dram.rank1.actPowerDownEnergy            0                       # Energy for active power-down per rank (pJ) (Joule)
system.mem_ctrl.dram.rank1.prePowerDownEnergy            0                       # Energy for precharge power-down per rank (pJ) (Joule)
system.mem_ctrl.dram.rank1.selfRefreshEnergy            0                       # Energy for self refresh per rank (pJ) (Joule)
system.mem_ctrl.dram.rank1.totalEnergy   144796517235                       # Total energy per rank (pJ) (Joule)
system.mem_ctrl.dram.rank1.averagePower    465.644405                       # Core power per rank (mW) (Watt)
system.mem_ctrl.dram.rank1.totalIdleTime            0                       # Total Idle time Per DRAM Rank (Tick)
system.mem_ctrl.dram.rank1.pwrStateTime::IDLE 298976360000                       # Time in different power states (Tick)
system.mem_ctrl.dram.rank1.pwrStateTime::REF  10383360000                       # Time in different power states (Tick)
system.mem_ctrl.dram.rank1.pwrStateTime::SREF            0                       # Time in different power states (Tick)
system.mem_ctrl.dram.rank1.pwrStateTime::PRE_PDN            0                       # Time in different power states (Tick)
system.mem_ctrl.dram.rank1.pwrStateTime::ACT   1599707000                       # Time in different power states (Tick)
system.mem_ctrl.dram.rank1.pwrStateTime::ACT_PDN            0                       # Time in different power states (Tick)
system.mem_ctrl.power_state.pwrStateResidencyTicks::UNDEFINED 310959427000                       # Cumulative time (in ticks) in various power states (Tick)
system.membus.transDist::ReadResp                 696                       # Transaction distribution (Count)
system.membus.transDist::WritebackDirty             4                       # Transaction distribution (Count)
system.membus.transDist::CleanEvict               105                       # Transaction distribution (Count)
system.membus.transDist::ReadExReq               3373                       # Transaction distribution (Count)
system.membus.transDist::ReadExResp              3373                       # Transaction distribution (Count)
system.membus.transDist::ReadSharedReq            696                       # Transaction distribution (Count)
system.membus.pktCount_system.l3cache.mem_side_port::system.mem_ctrl.port         8247                       # Packet count per connected requestor and responder (Count)
system.membus.pktCount::total                    8247                       # Packet count per connected requestor and responder (Count)
system.membus.pktSize_system.l3cache.mem_side_port::system.mem_ctrl.port       260672                       # Cumulative packet size per connected requestor and responder (Byte)
system.membus.pktSize::total                   260672                       # Cumulative packet size per connected requestor and responder (Byte)
system.membus.snoops                                0                       # Total snoops (Count)
system.membus.snoopTraffic                          0                       # Total snoop traffic (Byte)
system.membus.snoopFanout::samples               4069                       # Request fanout histogram (Count)
system.membus.snoopFanout::mean                     0                       # Request fanout histogram (Count)
system.membus.snoopFanout::stdev                    0                       # Request fanout histogram (Count)
system.membus.snoopFanout::underflows               0      0.00%      0.00% # Request fanout histogram (Count)
system.membus.snoopFanout::0                     4069    100.00%    100.00% # Request fanout histogram (Count)
system.membus.snoopFanout::1                        0      0.00%    100.00% # Request fanout histogram (Count)
system.membus.snoopFanout::overflows                0      0.00%    100.00% # Request fanout histogram (Count)
system.membus.snoopFanout::min_value                0                       # Request fanout histogram (Count)
system.membus.snoopFanout::max_value                0                       # Request fanout histogram (Count)
system.membus.snoopFanout::total                 4069                       # Request fanout histogram (Count)
system.membus.power_state.pwrStateResidencyTicks::UNDEFINED 310959427000                       # Cumulative time (in ticks) in various power states (Tick)
system.membus.reqLayer0.occupancy             4194000                       # Layer occupancy (ticks) (Tick)
system.membus.reqLayer0.utilization               0.0                       # Layer utilization (Ratio)
system.membus.respLayer0.occupancy           21541000                       # Layer occupancy (ticks) (Tick)
system.membus.respLayer0.utilization              0.0                       # Layer utilization (Ratio)
system.membus.snoop_filter.totRequests           4178                       # Total number of requests made to the snoop filter. (Count)
system.membus.snoop_filter.hitSingleRequests          109                       # Number of requests hitting in the snoop filter with a single holder of the requested data. (Count)
system.membus.snoop_filter.hitMultiRequests            0                       # Number of requests hitting in the snoop filter with multiple (>1) holders of the requested data. (Count)
system.membus.snoop_filter.totSnoops                0                       # Total number of snoops made to the snoop filter. (Count)
system.membus.snoop_filter.hitSingleSnoops            0                       # Number of snoops hitting in the snoop filter with a single holder of the requested data. (Count)
system.membus.snoop_filter.hitMultiSnoops            0                       # Number of snoops hitting in the snoop filter with multiple (>1) holders of the requested data. (Count)
system.workload.inst.arm                            0                       # number of arm instructions executed (Count)
system.workload.inst.quiesce                        0                       # number of quiesce instructions executed (Count)

---------- End Simulation Statistics   ----------
