
---------- Begin Simulation Statistics ----------
simSeconds                                   2.895957                       # Number of seconds simulated (Second)
simTicks                                 2895956658000                       # Number of ticks simulated (Tick)
finalTick                                2895956658000                       # Number of ticks from beginning of simulation (restored from checkpoints and never reset) (Tick)
simFreq                                  1000000000000                       # The number of ticks per simulated second ((Tick/Second))
hostSeconds                                    588.27                       # Real time elapsed on the host (Second)
hostTickRate                               4922853946                       # The number of ticks simulated per host second (ticks/s) ((Tick/Second))
hostMemory                                    8593772                       # Number of bytes of host memory used (Byte)
simInsts                                    942340584                       # Number of instructions simulated (Count)
simOps                                      942340584                       # Number of ops (including micro ops) simulated (Count)
hostInstRate                                  1601890                       # Simulator instruction rate (inst/s) ((Count/Second))
hostOpRate                                    1601890                       # Simulator op (including micro ops) rate (op/s) ((Count/Second))
system.clk_domain.clock                          1000                       # Clock period in ticks (Tick)
system.clk_domain.voltage_domain.voltage            1                       # Voltage in Volts (Volt)
system.cpu.numCycles                       2895956658                       # Number of cpu cycles simulated (Cycle)
system.cpu.numWorkItemsStarted                      0                       # Number of work items this cpu started (Count)
system.cpu.numWorkItemsCompleted                    0                       # Number of work items this cpu completed (Count)
system.cpu.dcache.demandHits::cpu.data      439128017                       # number of demand (read+write) hits (Count)
system.cpu.dcache.demandHits::total         439128017                       # number of demand (read+write) hits (Count)
system.cpu.dcache.overallHits::cpu.data     439128017                       # number of overall hits (Count)
system.cpu.dcache.overallHits::total        439128017                       # number of overall hits (Count)
system.cpu.dcache.demandMisses::cpu.data       535811                       # number of demand (read+write) misses (Count)
system.cpu.dcache.demandMisses::total          535811                       # number of demand (read+write) misses (Count)
system.cpu.dcache.overallMisses::cpu.data       535811                       # number of overall misses (Count)
system.cpu.dcache.overallMisses::total         535811                       # number of overall misses (Count)
system.cpu.dcache.demandMissLatency::cpu.data  45928999000                       # number of demand (read+write) miss ticks (Tick)
system.cpu.dcache.demandMissLatency::total  45928999000                       # number of demand (read+write) miss ticks (Tick)
system.cpu.dcache.overallMissLatency::cpu.data  45928999000                       # number of overall miss ticks (Tick)
system.cpu.dcache.overallMissLatency::total  45928999000                       # number of overall miss ticks (Tick)
system.cpu.dcache.demandAccesses::cpu.data    439663828                       # number of demand (read+write) accesses (Count)
system.cpu.dcache.demandAccesses::total     439663828                       # number of demand (read+write) accesses (Count)
system.cpu.dcache.overallAccesses::cpu.data    439663828                       # number of overall (read+write) accesses (Count)
system.cpu.dcache.overallAccesses::total    439663828                       # number of overall (read+write) accesses (Count)
system.cpu.dcache.demandMissRate::cpu.data     0.001219                       # miss rate for demand accesses (Ratio)
system.cpu.dcache.demandMissRate::total      0.001219                       # miss rate for demand accesses (Ratio)
system.cpu.dcache.overallMissRate::cpu.data     0.001219                       # miss rate for overall accesses (Ratio)
system.cpu.dcache.overallMissRate::total     0.001219                       # miss rate for overall accesses (Ratio)
system.cpu.dcache.demandAvgMissLatency::cpu.data 85718.656392                       # average overall miss latency ((Cycle/Count))
system.cpu.dcache.demandAvgMissLatency::total 85718.656392                       # average overall miss latency ((Cycle/Count))
system.cpu.dcache.overallAvgMissLatency::cpu.data 85718.656392                       # average overall miss latency ((Cycle/Count))
system.cpu.dcache.overallAvgMissLatency::total 85718.656392                       # average overall miss latency ((Cycle/Count))
system.cpu.dcache.blockedCycles::no_mshrs            0                       # number of cycles access was blocked (Cycle)
system.cpu.dcache.blockedCycles::no_targets            0                       # number of cycles access was blocked (Cycle)
system.cpu.dcache.blockedCauses::no_mshrs            0                       # number of times access was blocked (Count)
system.cpu.dcache.blockedCauses::no_targets            0                       # number of times access was blocked (Count)
system.cpu.dcache.avgBlocked::no_mshrs            nan                       # average number of cycles each access was blocked ((Cycle/Count))
system.cpu.dcache.avgBlocked::no_targets          nan                       # average number of cycles each access was blocked ((Cycle/Count))
system.cpu.dcache.writebacks::writebacks       342415                       # number of writebacks (Count)
system.cpu.dcache.writebacks::total            342415                       # number of writebacks (Count)
system.cpu.dcache.demandMshrMisses::cpu.data       535811                       # number of demand (read+write) MSHR misses (Count)
system.cpu.dcache.demandMshrMisses::total       535811                       # number of demand (read+write) MSHR misses (Count)
system.cpu.dcache.overallMshrMisses::cpu.data       535811                       # number of overall MSHR misses (Count)
system.cpu.dcache.overallMshrMisses::total       535811                       # number of overall MSHR misses (Count)
system.cpu.dcache.demandMshrMissLatency::cpu.data  44857377000                       # number of demand (read+write) MSHR miss ticks (Tick)
system.cpu.dcache.demandMshrMissLatency::total  44857377000                       # number of demand (read+write) MSHR miss ticks (Tick)
system.cpu.dcache.overallMshrMissLatency::cpu.data  44857377000                       # number of overall MSHR miss ticks (Tick)
system.cpu.dcache.overallMshrMissLatency::total  44857377000                       # number of overall MSHR miss ticks (Tick)
system.cpu.dcache.demandMshrMissRate::cpu.data     0.001219                       # mshr miss ratio for demand accesses (Ratio)
system.cpu.dcache.demandMshrMissRate::total     0.001219                       # mshr miss ratio for demand accesses (Ratio)
system.cpu.dcache.overallMshrMissRate::cpu.data     0.001219                       # mshr miss ratio for overall accesses (Ratio)
system.cpu.dcache.overallMshrMissRate::total     0.001219                       # mshr miss ratio for overall accesses (Ratio)
system.cpu.dcache.demandAvgMshrMissLatency::cpu.data 83718.656392                       # average overall mshr miss latency ((Cycle/Count))
system.cpu.dcache.demandAvgMshrMissLatency::total 83718.656392                       # average overall mshr miss latency ((Cycle/Count))
system.cpu.dcache.overallAvgMshrMissLatency::cpu.data 83718.656392                       # average overall mshr miss latency ((Cycle/Count))
system.cpu.dcache.overallAvgMshrMissLatency::total 83718.656392                       # average overall mshr miss latency ((Cycle/Count))
system.cpu.dcache.replacements                 535299                       # number of replacements (Count)
system.cpu.dcache.ReadReq.hits::cpu.data    311903875                       # number of ReadReq hits (Count)
system.cpu.dcache.ReadReq.hits::total       311903875                       # number of ReadReq hits (Count)
system.cpu.dcache.ReadReq.misses::cpu.data       295335                       # number of ReadReq misses (Count)
system.cpu.dcache.ReadReq.misses::total        295335                       # number of ReadReq misses (Count)
system.cpu.dcache.ReadReq.missLatency::cpu.data  21451436000                       # number of ReadReq miss ticks (Tick)
system.cpu.dcache.ReadReq.missLatency::total  21451436000                       # number of ReadReq miss ticks (Tick)
system.cpu.dcache.ReadReq.accesses::cpu.data    312199210                       # number of ReadReq accesses(hits+misses) (Count)
system.cpu.dcache.ReadReq.accesses::total    312199210                       # number of ReadReq accesses(hits+misses) (Count)
system.cpu.dcache.ReadReq.missRate::cpu.data     0.000946                       # miss rate for ReadReq accesses (Ratio)
system.cpu.dcache.ReadReq.missRate::total     0.000946                       # miss rate for ReadReq accesses (Ratio)
system.cpu.dcache.ReadReq.avgMissLatency::cpu.data 72634.249242                       # average ReadReq miss latency ((Tick/Count))
system.cpu.dcache.ReadReq.avgMissLatency::total 72634.249242                       # average ReadReq miss latency ((Tick/Count))
system.cpu.dcache.ReadReq.mshrMisses::cpu.data       295335                       # number of ReadReq MSHR misses (Count)
system.cpu.dcache.ReadReq.mshrMisses::total       295335                       # number of ReadReq MSHR misses (Count)
system.cpu.dcache.ReadReq.mshrMissLatency::cpu.data  20860766000                       # number of ReadReq MSHR miss ticks (Tick)
system.cpu.dcache.ReadReq.mshrMissLatency::total  20860766000                       # number of ReadReq MSHR miss ticks (Tick)
system.cpu.dcache.ReadReq.mshrMissRate::cpu.data     0.000946                       # mshr miss rate for ReadReq accesses (Ratio)
system.cpu.dcache.ReadReq.mshrMissRate::total     0.000946                       # mshr miss rate for ReadReq accesses (Ratio)
system.cpu.dcache.ReadReq.avgMshrMissLatency::cpu.data 70634.249242                       # average ReadReq mshr miss latency ((Tick/Count))
system.cpu.dcache.ReadReq.avgMshrMissLatency::total 70634.249242                       # average ReadReq mshr miss latency ((Tick/Count))
system.cpu.dcache.WriteReq.hits::cpu.data    127224142                       # number of WriteReq hits (Count)
system.cpu.dcache.WriteReq.hits::total      127224142                       # number of WriteReq hits (Count)
system.cpu.dcache.WriteReq.misses::cpu.data       240476                       # number of WriteReq misses (Count)
system.cpu.dcache.WriteReq.misses::total       240476                       # number of WriteReq misses (Count)
system.cpu.dcache.WriteReq.missLatency::cpu.data  24477563000                       # number of WriteReq miss ticks (Tick)
system.cpu.dcache.WriteReq.missLatency::total  24477563000                       # number of WriteReq miss ticks (Tick)
system.cpu.dcache.WriteReq.accesses::cpu.data    127464618                       # number of WriteReq accesses(hits+misses) (Count)
system.cpu.dcache.WriteReq.accesses::total    127464618                       # number of WriteReq accesses(hits+misses) (Count)
system.cpu.dcache.WriteReq.missRate::cpu.data     0.001887                       # miss rate for WriteReq accesses (Ratio)
system.cpu.dcache.WriteReq.missRate::total     0.001887                       # miss rate for WriteReq accesses (Ratio)
system.cpu.dcache.WriteReq.avgMissLatency::cpu.data 101787.966367                       # average WriteReq miss latency ((Tick/Count))
system.cpu.dcache.WriteReq.avgMissLatency::total 101787.966367                       # average WriteReq miss latency ((Tick/Count))
system.cpu.dcache.WriteReq.mshrMisses::cpu.data       240476                       # number of WriteReq MSHR misses (Count)
system.cpu.dcache.WriteReq.mshrMisses::total       240476                       # number of WriteReq MSHR misses (Count)
system.cpu.dcache.WriteReq.mshrMissLatency::cpu.data  23996611000                       # number of WriteReq MSHR miss ticks (Tick)
system.cpu.dcache.WriteReq.mshrMissLatency::total  23996611000                       # number of WriteReq MSHR miss ticks (Tick)
system.cpu.dcache.WriteReq.mshrMissRate::cpu.data     0.001887                       # mshr miss rate for WriteReq accesses (Ratio)
system.cpu.dcache.WriteReq.mshrMissRate::total     0.001887                       # mshr miss rate for WriteReq accesses (Ratio)
system.cpu.dcache.WriteReq.avgMshrMissLatency::cpu.data 99787.966367                       # average WriteReq mshr miss latency ((Tick/Count))
system.cpu.dcache.WriteReq.avgMshrMissLatency::total 99787.966367                       # average WriteReq mshr miss latency ((Tick/Count))
system.cpu.dcache.power_state.pwrStateResidencyTicks::UNDEFINED 2895956658000                       # Cumulative time (in ticks) in various power states (Tick)
system.cpu.dcache.tags.tagsInUse           511.901316                       # Average ticks per tags in use ((Tick/Count))
system.cpu.dcache.tags.totalRefs            439663828                       # Total number of references to valid blocks. (Count)
system.cpu.dcache.tags.sampledRefs             535811                       # Sample count of references to valid blocks. (Count)
system.cpu.dcache.tags.avgRefs             820.557674                       # Average number of references to valid blocks. ((Count/Count))
system.cpu.dcache.tags.warmupTick              306000                       # The tick when the warmup percentage was hit. (Tick)
system.cpu.dcache.tags.occupancies::cpu.data   511.901316                       # Average occupied blocks per tick, per requestor ((Count/Tick))
system.cpu.dcache.tags.avgOccs::cpu.data     0.999807                       # Average percentage of cache occupancy ((Ratio/Tick))
system.cpu.dcache.tags.avgOccs::total        0.999807                       # Average percentage of cache occupancy ((Ratio/Tick))
system.cpu.dcache.tags.occupanciesTaskId::1024          512                       # Occupied blocks per task id (Count)
system.cpu.dcache.tags.ageTaskId_1024::0           20                       # Occupied blocks per task id, per block age (Count)
system.cpu.dcache.tags.ageTaskId_1024::1           21                       # Occupied blocks per task id, per block age (Count)
system.cpu.dcache.tags.ageTaskId_1024::2           53                       # Occupied blocks per task id, per block age (Count)
system.cpu.dcache.tags.ageTaskId_1024::3          418                       # Occupied blocks per task id, per block age (Count)
system.cpu.dcache.tags.ratioOccsTaskId::1024            1                       # Ratio of occupied blocks and all blocks, per task id (Ratio)
system.cpu.dcache.tags.tagAccesses          440199639                       # Number of tag accesses (Count)
system.cpu.dcache.tags.dataAccesses         440199639                       # Number of data accesses (Count)
system.cpu.dcache.tags.power_state.pwrStateResidencyTicks::UNDEFINED 2895956658000                       # Cumulative time (in ticks) in various power states (Tick)
system.cpu.exec_context.thread_0.numInsts    942340584                       # Number of instructions committed (Count)
system.cpu.exec_context.thread_0.numOps     942340584                       # Number of ops (including micro ops) committed (Count)
system.cpu.exec_context.thread_0.numIntAluAccesses    939037473                       # Number of integer alu accesses (Count)
system.cpu.exec_context.thread_0.numFpAluAccesses           18                       # Number of float alu accesses (Count)
system.cpu.exec_context.thread_0.numVecAluAccesses            0                       # Number of vector alu accesses (Count)
system.cpu.exec_context.thread_0.numCallsReturns      4973432                       # Number of times a function call or return occured (Count)
system.cpu.exec_context.thread_0.numCondCtrlInsts     62991360                       # Number of instructions that are conditional controls (Count)
system.cpu.exec_context.thread_0.numIntInsts    939037473                       # Number of integer instructions (Count)
system.cpu.exec_context.thread_0.numFpInsts           18                       # Number of float instructions (Count)
system.cpu.exec_context.thread_0.numVecInsts            0                       # Number of vector instructions (Count)
system.cpu.exec_context.thread_0.numIntRegReads   1475167922                       # Number of times the integer registers were read (Count)
system.cpu.exec_context.thread_0.numIntRegWrites    820809360                       # Number of times the integer registers were written (Count)
system.cpu.exec_context.thread_0.numFpRegReads           18                       # Number of times the floating registers were read (Count)
system.cpu.exec_context.thread_0.numFpRegWrites            0                       # Number of times the floating registers were written (Count)
system.cpu.exec_context.thread_0.numVecRegReads            0                       # Number of times the vector registers were read (Count)
system.cpu.exec_context.thread_0.numVecRegWrites            0                       # Number of times the vector registers were written (Count)
system.cpu.exec_context.thread_0.numVecPredRegReads            0                       # Number of times the predicate registers were read (Count)
system.cpu.exec_context.thread_0.numVecPredRegWrites            0                       # Number of times the predicate registers were written (Count)
system.cpu.exec_context.thread_0.numMiscRegReads            0                       # Number of times the Misc registers were read (Count)
system.cpu.exec_context.thread_0.numMiscRegWrites            0                       # Number of times the Misc registers were written (Count)
system.cpu.exec_context.thread_0.numMemRefs    439656348                       # Number of memory refs (Count)
system.cpu.exec_context.thread_0.numLoadInsts    312199209                       # Number of load instructions (Count)
system.cpu.exec_context.thread_0.numStoreInsts    127457139                       # Number of store instructions (Count)
system.cpu.exec_context.thread_0.numIdleCycles     0.001000                       # Number of idle cycles (Cycle)
system.cpu.exec_context.thread_0.numBusyCycles 2895956657.999000                       # Number of busy cycles (Cycle)
system.cpu.exec_context.thread_0.notIdleFraction     1.000000                       # Percentage of non-idle cycles (Ratio)
system.cpu.exec_context.thread_0.idleFraction     0.000000                       # Percentage of idle cycles (Ratio)
system.cpu.exec_context.thread_0.numBranches     68121763                       # Number of branches fetched (Count)
system.cpu.exec_context.thread_0.statExecutedInstType::No_OpClass            0      0.00%      0.00% # Class of executed instruction. (Count)
system.cpu.exec_context.thread_0.statExecutedInstType::IntAlu    502686531     53.34%     53.34% # Class of executed instruction. (Count)
system.cpu.exec_context.thread_0.statExecutedInstType::IntMult            0      0.00%     53.34% # Class of executed instruction. (Count)
system.cpu.exec_context.thread_0.statExecutedInstType::IntDiv            0      0.00%     53.34% # Class of executed instruction. (Count)
system.cpu.exec_context.thread_0.statExecutedInstType::FloatAdd            0      0.00%     53.34% # Class of executed instruction. (Count)
system.cpu.exec_context.thread_0.statExecutedInstType::FloatCmp            0      0.00%     53.34% # Class of executed instruction. (Count)
system.cpu.exec_context.thread_0.statExecutedInstType::FloatCvt            0      0.00%     53.34% # Class of executed instruction. (Count)
system.cpu.exec_context.thread_0.statExecutedInstType::FloatMult            0      0.00%     53.34% # Class of executed instruction. (Count)
system.cpu.exec_context.thread_0.statExecutedInstType::FloatMultAcc            0      0.00%     53.34% # Class of executed instruction. (Count)
system.cpu.exec_context.thread_0.statExecutedInstType::FloatDiv            0      0.00%     53.34% # Class of executed instruction. (Count)
system.cpu.exec_context.thread_0.statExecutedInstType::FloatMisc            0      0.00%     53.34% # Class of executed instruction. (Count)
system.cpu.exec_context.thread_0.statExecutedInstType::FloatSqrt            0      0.00%     53.34% # Class of executed instruction. (Count)
system.cpu.exec_context.thread_0.statExecutedInstType::SimdAdd            0      0.00%     53.34% # Class of executed instruction. (Count)
system.cpu.exec_context.thread_0.statExecutedInstType::SimdAddAcc            0      0.00%     53.34% # Class of executed instruction. (Count)
system.cpu.exec_context.thread_0.statExecutedInstType::SimdAlu            0      0.00%     53.34% # Class of executed instruction. (Count)
system.cpu.exec_context.thread_0.statExecutedInstType::SimdCmp            0      0.00%     53.34% # Class of executed instruction. (Count)
system.cpu.exec_context.thread_0.statExecutedInstType::SimdCvt            0      0.00%     53.34% # Class of executed instruction. (Count)
system.cpu.exec_context.thread_0.statExecutedInstType::SimdMisc            0      0.00%     53.34% # Class of executed instruction. (Count)
system.cpu.exec_context.thread_0.statExecutedInstType::SimdMult            0      0.00%     53.34% # Class of executed instruction. (Count)
system.cpu.exec_context.thread_0.statExecutedInstType::SimdMultAcc            0      0.00%     53.34% # Class of executed instruction. (Count)
system.cpu.exec_context.thread_0.statExecutedInstType::SimdShift            0      0.00%     53.34% # Class of executed instruction. (Count)
system.cpu.exec_context.thread_0.statExecutedInstType::SimdShiftAcc            0      0.00%     53.34% # Class of executed instruction. (Count)
system.cpu.exec_context.thread_0.statExecutedInstType::SimdDiv            0      0.00%     53.34% # Class of executed instruction. (Count)
system.cpu.exec_context.thread_0.statExecutedInstType::SimdSqrt            0      0.00%     53.34% # Class of executed instruction. (Count)
system.cpu.exec_context.thread_0.statExecutedInstType::SimdFloatAdd            0      0.00%     53.34% # Class of executed instruction. (Count)
system.cpu.exec_context.thread_0.statExecutedInstType::SimdFloatAlu            0      0.00%     53.34% # Class of executed instruction. (Count)
system.cpu.exec_context.thread_0.statExecutedInstType::SimdFloatCmp            0      0.00%     53.34% # Class of executed instruction. (Count)
system.cpu.exec_context.thread_0.statExecutedInstType::SimdFloatCvt            0      0.00%     53.34% # Class of executed instruction. (Count)
system.cpu.exec_context.thread_0.statExecutedInstType::SimdFloatDiv            0      0.00%     53.34% # Class of executed instruction. (Count)
system.cpu.exec_context.thread_0.statExecutedInstType::SimdFloatMisc            0      0.00%     53.34% # Class of executed instruction. (Count)
system.cpu.exec_context.thread_0.statExecutedInstType::SimdFloatMult            0      0.00%     53.34% # Class of executed instruction. (Count)
system.cpu.exec_context.thread_0.statExecutedInstType::SimdFloatMultAcc            0      0.00%     53.34% # Class of executed instruction. (Count)
system.cpu.exec_context.thread_0.statExecutedInstType::SimdFloatSqrt            0      0.00%     53.34% # Class of executed instruction. (Count)
system.cpu.exec_context.thread_0.statExecutedInstType::SimdReduceAdd            0      0.00%     53.34% # Class of executed instruction. (Count)
system.cpu.exec_context.thread_0.statExecutedInstType::SimdReduceAlu            0      0.00%     53.34% # Class of executed instruction. (Count)
system.cpu.exec_context.thread_0.statExecutedInstType::SimdReduceCmp            0      0.00%     53.34% # Class of executed instruction. (Count)
system.cpu.exec_context.thread_0.statExecutedInstType::SimdFloatReduceAdd            0      0.00%     53.34% # Class of executed instruction. (Count)
system.cpu.exec_context.thread_0.statExecutedInstType::SimdFloatReduceCmp            0      0.00%     53.34% # Class of executed instruction. (Count)
system.cpu.exec_context.thread_0.statExecutedInstType::SimdAes            0      0.00%     53.34% # Class of executed instruction. (Count)
system.cpu.exec_context.thread_0.statExecutedInstType::SimdAesMix            0      0.00%     53.34% # Class of executed instruction. (Count)
system.cpu.exec_context.thread_0.statExecutedInstType::SimdSha1Hash            0      0.00%     53.34% # Class of executed instruction. (Count)
system.cpu.exec_context.thread_0.statExecutedInstType::SimdSha1Hash2            0      0.00%     53.34% # Class of executed instruction. (Count)
system.cpu.exec_context.thread_0.statExecutedInstType::SimdSha256Hash            0      0.00%     53.34% # Class of executed instruction. (Count)
system.cpu.exec_context.thread_0.statExecutedInstType::SimdSha256Hash2            0      0.00%     53.34% # Class of executed instruction. (Count)
system.cpu.exec_context.thread_0.statExecutedInstType::SimdShaSigma2            0      0.00%     53.34% # Class of executed instruction. (Count)
system.cpu.exec_context.thread_0.statExecutedInstType::SimdShaSigma3            0      0.00%     53.34% # Class of executed instruction. (Count)
system.cpu.exec_context.thread_0.statExecutedInstType::SimdPredAlu            0      0.00%     53.34% # Class of executed instruction. (Count)
system.cpu.exec_context.thread_0.statExecutedInstType::MemRead    312199209     33.13%     86.47% # Class of executed instruction. (Count)
system.cpu.exec_context.thread_0.statExecutedInstType::MemWrite    127457121     13.53%    100.00% # Class of executed instruction. (Count)
system.cpu.exec_context.thread_0.statExecutedInstType::FloatMemRead            0      0.00%    100.00% # Class of executed instruction. (Count)
system.cpu.exec_context.thread_0.statExecutedInstType::FloatMemWrite           18      0.00%    100.00% # Class of executed instruction. (Count)
system.cpu.exec_context.thread_0.statExecutedInstType::IprAccess            0      0.00%    100.00% # Class of executed instruction. (Count)
system.cpu.exec_context.thread_0.statExecutedInstType::InstPrefetch            0      0.00%    100.00% # Class of executed instruction. (Count)
system.cpu.exec_context.thread_0.statExecutedInstType::total    942342879                       # Class of executed instruction. (Count)
system.cpu.icache.demandHits::cpu.inst      938716608                       # number of demand (read+write) hits (Count)
system.cpu.icache.demandHits::total         938716608                       # number of demand (read+write) hits (Count)
system.cpu.icache.overallHits::cpu.inst     938716608                       # number of overall hits (Count)
system.cpu.icache.overallHits::total        938716608                       # number of overall hits (Count)
system.cpu.icache.demandMisses::cpu.inst      3626271                       # number of demand (read+write) misses (Count)
system.cpu.icache.demandMisses::total         3626271                       # number of demand (read+write) misses (Count)
system.cpu.icache.overallMisses::cpu.inst      3626271                       # number of overall misses (Count)
system.cpu.icache.overallMisses::total        3626271                       # number of overall misses (Count)
system.cpu.icache.demandMissLatency::cpu.inst  94370818000                       # number of demand (read+write) miss ticks (Tick)
system.cpu.icache.demandMissLatency::total  94370818000                       # number of demand (read+write) miss ticks (Tick)
system.cpu.icache.overallMissLatency::cpu.inst  94370818000                       # number of overall miss ticks (Tick)
system.cpu.icache.overallMissLatency::total  94370818000                       # number of overall miss ticks (Tick)
system.cpu.icache.demandAccesses::cpu.inst    942342879                       # number of demand (read+write) accesses (Count)
system.cpu.icache.demandAccesses::total     942342879                       # number of demand (read+write) accesses (Count)
system.cpu.icache.overallAccesses::cpu.inst    942342879                       # number of overall (read+write) accesses (Count)
system.cpu.icache.overallAccesses::total    942342879                       # number of overall (read+write) accesses (Count)
system.cpu.icache.demandMissRate::cpu.inst     0.003848                       # miss rate for demand accesses (Ratio)
system.cpu.icache.demandMissRate::total      0.003848                       # miss rate for demand accesses (Ratio)
system.cpu.icache.overallMissRate::cpu.inst     0.003848                       # miss rate for overall accesses (Ratio)
system.cpu.icache.overallMissRate::total     0.003848                       # miss rate for overall accesses (Ratio)
system.cpu.icache.demandAvgMissLatency::cpu.inst 26024.204479                       # average overall miss latency ((Cycle/Count))
system.cpu.icache.demandAvgMissLatency::total 26024.204479                       # average overall miss latency ((Cycle/Count))
system.cpu.icache.overallAvgMissLatency::cpu.inst 26024.204479                       # average overall miss latency ((Cycle/Count))
system.cpu.icache.overallAvgMissLatency::total 26024.204479                       # average overall miss latency ((Cycle/Count))
system.cpu.icache.blockedCycles::no_mshrs            0                       # number of cycles access was blocked (Cycle)
system.cpu.icache.blockedCycles::no_targets            0                       # number of cycles access was blocked (Cycle)
system.cpu.icache.blockedCauses::no_mshrs            0                       # number of times access was blocked (Count)
system.cpu.icache.blockedCauses::no_targets            0                       # number of times access was blocked (Count)
system.cpu.icache.avgBlocked::no_mshrs            nan                       # average number of cycles each access was blocked ((Cycle/Count))
system.cpu.icache.avgBlocked::no_targets          nan                       # average number of cycles each access was blocked ((Cycle/Count))
system.cpu.icache.demandMshrMisses::cpu.inst      3626271                       # number of demand (read+write) MSHR misses (Count)
system.cpu.icache.demandMshrMisses::total      3626271                       # number of demand (read+write) MSHR misses (Count)
system.cpu.icache.overallMshrMisses::cpu.inst      3626271                       # number of overall MSHR misses (Count)
system.cpu.icache.overallMshrMisses::total      3626271                       # number of overall MSHR misses (Count)
system.cpu.icache.demandMshrMissLatency::cpu.inst  87118276000                       # number of demand (read+write) MSHR miss ticks (Tick)
system.cpu.icache.demandMshrMissLatency::total  87118276000                       # number of demand (read+write) MSHR miss ticks (Tick)
system.cpu.icache.overallMshrMissLatency::cpu.inst  87118276000                       # number of overall MSHR miss ticks (Tick)
system.cpu.icache.overallMshrMissLatency::total  87118276000                       # number of overall MSHR miss ticks (Tick)
system.cpu.icache.demandMshrMissRate::cpu.inst     0.003848                       # mshr miss ratio for demand accesses (Ratio)
system.cpu.icache.demandMshrMissRate::total     0.003848                       # mshr miss ratio for demand accesses (Ratio)
system.cpu.icache.overallMshrMissRate::cpu.inst     0.003848                       # mshr miss ratio for overall accesses (Ratio)
system.cpu.icache.overallMshrMissRate::total     0.003848                       # mshr miss ratio for overall accesses (Ratio)
system.cpu.icache.demandAvgMshrMissLatency::cpu.inst 24024.204479                       # average overall mshr miss latency ((Cycle/Count))
system.cpu.icache.demandAvgMshrMissLatency::total 24024.204479                       # average overall mshr miss latency ((Cycle/Count))
system.cpu.icache.overallAvgMshrMissLatency::cpu.inst 24024.204479                       # average overall mshr miss latency ((Cycle/Count))
system.cpu.icache.overallAvgMshrMissLatency::total 24024.204479                       # average overall mshr miss latency ((Cycle/Count))
system.cpu.icache.replacements                3626019                       # number of replacements (Count)
system.cpu.icache.ReadReq.hits::cpu.inst    938716608                       # number of ReadReq hits (Count)
system.cpu.icache.ReadReq.hits::total       938716608                       # number of ReadReq hits (Count)
system.cpu.icache.ReadReq.misses::cpu.inst      3626271                       # number of ReadReq misses (Count)
system.cpu.icache.ReadReq.misses::total       3626271                       # number of ReadReq misses (Count)
system.cpu.icache.ReadReq.missLatency::cpu.inst  94370818000                       # number of ReadReq miss ticks (Tick)
system.cpu.icache.ReadReq.missLatency::total  94370818000                       # number of ReadReq miss ticks (Tick)
system.cpu.icache.ReadReq.accesses::cpu.inst    942342879                       # number of ReadReq accesses(hits+misses) (Count)
system.cpu.icache.ReadReq.accesses::total    942342879                       # number of ReadReq accesses(hits+misses) (Count)
system.cpu.icache.ReadReq.missRate::cpu.inst     0.003848                       # miss rate for ReadReq accesses (Ratio)
system.cpu.icache.ReadReq.missRate::total     0.003848                       # miss rate for ReadReq accesses (Ratio)
system.cpu.icache.ReadReq.avgMissLatency::cpu.inst 26024.204479                       # average ReadReq miss latency ((Tick/Count))
system.cpu.icache.ReadReq.avgMissLatency::total 26024.204479                       # average ReadReq miss latency ((Tick/Count))
system.cpu.icache.ReadReq.mshrMisses::cpu.inst      3626271                       # number of ReadReq MSHR misses (Count)
system.cpu.icache.ReadReq.mshrMisses::total      3626271                       # number of ReadReq MSHR misses (Count)
system.cpu.icache.ReadReq.mshrMissLatency::cpu.inst  87118276000                       # number of ReadReq MSHR miss ticks (Tick)
system.cpu.icache.ReadReq.mshrMissLatency::total  87118276000                       # number of ReadReq MSHR miss ticks (Tick)
system.cpu.icache.ReadReq.mshrMissRate::cpu.inst     0.003848                       # mshr miss rate for ReadReq accesses (Ratio)
system.cpu.icache.ReadReq.mshrMissRate::total     0.003848                       # mshr miss rate for ReadReq accesses (Ratio)
system.cpu.icache.ReadReq.avgMshrMissLatency::cpu.inst 24024.204479                       # average ReadReq mshr miss latency ((Tick/Count))
system.cpu.icache.ReadReq.avgMshrMissLatency::total 24024.204479                       # average ReadReq mshr miss latency ((Tick/Count))
system.cpu.icache.power_state.pwrStateResidencyTicks::UNDEFINED 2895956658000                       # Cumulative time (in ticks) in various power states (Tick)
system.cpu.icache.tags.tagsInUse           240.379224                       # Average ticks per tags in use ((Tick/Count))
system.cpu.icache.tags.totalRefs            942342879                       # Total number of references to valid blocks. (Count)
system.cpu.icache.tags.sampledRefs            3626271                       # Sample count of references to valid blocks. (Count)
system.cpu.icache.tags.avgRefs             259.865542                       # Average number of references to valid blocks. ((Count/Count))
system.cpu.icache.tags.warmupTick              149000                       # The tick when the warmup percentage was hit. (Tick)
system.cpu.icache.tags.occupancies::cpu.inst   240.379224                       # Average occupied blocks per tick, per requestor ((Count/Tick))
system.cpu.icache.tags.avgOccs::cpu.inst     0.938981                       # Average percentage of cache occupancy ((Ratio/Tick))
system.cpu.icache.tags.avgOccs::total        0.938981                       # Average percentage of cache occupancy ((Ratio/Tick))
system.cpu.icache.tags.occupanciesTaskId::1024          252                       # Occupied blocks per task id (Count)
system.cpu.icache.tags.ageTaskId_1024::0           45                       # Occupied blocks per task id, per block age (Count)
system.cpu.icache.tags.ageTaskId_1024::1           78                       # Occupied blocks per task id, per block age (Count)
system.cpu.icache.tags.ageTaskId_1024::3            1                       # Occupied blocks per task id, per block age (Count)
system.cpu.icache.tags.ageTaskId_1024::4          128                       # Occupied blocks per task id, per block age (Count)
system.cpu.icache.tags.ratioOccsTaskId::1024     0.984375                       # Ratio of occupied blocks and all blocks, per task id (Ratio)
system.cpu.icache.tags.tagAccesses          945969150                       # Number of tag accesses (Count)
system.cpu.icache.tags.dataAccesses         945969150                       # Number of data accesses (Count)
system.cpu.icache.tags.power_state.pwrStateResidencyTicks::UNDEFINED 2895956658000                       # Cumulative time (in ticks) in various power states (Tick)
system.cpu.power_state.pwrStateResidencyTicks::ON 2895956658000                       # Cumulative time (in ticks) in various power states (Tick)
system.cpu.thread_0.numInsts                        0                       # Number of Instructions committed (Count)
system.cpu.thread_0.numOps                          0                       # Number of Ops committed (Count)
system.cpu.thread_0.numMemRefs                      0                       # Number of Memory References (Count)
system.cpu.workload.numSyscalls                   113                       # Number of system calls (Count)
system.l2bus.transDist::ReadResp              3921606                       # Transaction distribution (Count)
system.l2bus.transDist::WritebackDirty         545758                       # Transaction distribution (Count)
system.l2bus.transDist::CleanEvict            3887782                       # Transaction distribution (Count)
system.l2bus.transDist::ReadExReq              240476                       # Transaction distribution (Count)
system.l2bus.transDist::ReadExResp             240476                       # Transaction distribution (Count)
system.l2bus.transDist::ReadSharedReq         3921606                       # Transaction distribution (Count)
system.l2bus.pktCount_system.cpu.icache.mem_side_port::system.l2cache.cpu_side_port     10878561                       # Packet count per connected requestor and responder (Count)
system.l2bus.pktCount_system.cpu.dcache.mem_side_port::system.l2cache.cpu_side_port      1606921                       # Packet count per connected requestor and responder (Count)
system.l2bus.pktCount::total                 12485482                       # Packet count per connected requestor and responder (Count)
system.l2bus.pktSize_system.cpu.icache.mem_side_port::system.l2cache.cpu_side_port    232081344                       # Cumulative packet size per connected requestor and responder (Byte)
system.l2bus.pktSize_system.cpu.dcache.mem_side_port::system.l2cache.cpu_side_port     56206464                       # Cumulative packet size per connected requestor and responder (Byte)
system.l2bus.pktSize::total                 288287808                       # Cumulative packet size per connected requestor and responder (Byte)
system.l2bus.snoops                            272222                       # Total snoops (Count)
system.l2bus.snoopTraffic                    13013952                       # Total snoop traffic (Byte)
system.l2bus.snoopFanout::samples             4434304                       # Request fanout histogram (Count)
system.l2bus.snoopFanout::mean               0.000177                       # Request fanout histogram (Count)
system.l2bus.snoopFanout::stdev              0.013304                       # Request fanout histogram (Count)
system.l2bus.snoopFanout::underflows                0      0.00%      0.00% # Request fanout histogram (Count)
system.l2bus.snoopFanout::0                   4433519     99.98%     99.98% # Request fanout histogram (Count)
system.l2bus.snoopFanout::1                       785      0.02%    100.00% # Request fanout histogram (Count)
system.l2bus.snoopFanout::2                         0      0.00%    100.00% # Request fanout histogram (Count)
system.l2bus.snoopFanout::overflows                 0      0.00%    100.00% # Request fanout histogram (Count)
system.l2bus.snoopFanout::min_value                 0                       # Request fanout histogram (Count)
system.l2bus.snoopFanout::max_value                 1                       # Request fanout histogram (Count)
system.l2bus.snoopFanout::total               4434304                       # Request fanout histogram (Count)
system.l2bus.power_state.pwrStateResidencyTicks::UNDEFINED 2895956658000                       # Cumulative time (in ticks) in various power states (Tick)
system.l2bus.reqLayer0.occupancy           9008230000                       # Layer occupancy (ticks) (Tick)
system.l2bus.reqLayer0.utilization                0.0                       # Layer utilization (Ratio)
system.l2bus.respLayer0.occupancy         10878813000                       # Layer occupancy (ticks) (Tick)
system.l2bus.respLayer0.utilization               0.0                       # Layer utilization (Ratio)
system.l2bus.respLayer1.occupancy          1607433000                       # Layer occupancy (ticks) (Tick)
system.l2bus.respLayer1.utilization               0.0                       # Layer utilization (Ratio)
system.l2bus.snoop_filter.totRequests         8323400                       # Total number of requests made to the snoop filter. (Count)
system.l2bus.snoop_filter.hitSingleRequests      4161318                       # Number of requests hitting in the snoop filter with a single holder of the requested data. (Count)
system.l2bus.snoop_filter.hitMultiRequests            4                       # Number of requests hitting in the snoop filter with multiple (>1) holders of the requested data. (Count)
system.l2bus.snoop_filter.totSnoops               781                       # Total number of snoops made to the snoop filter. (Count)
system.l2bus.snoop_filter.hitSingleSnoops          781                       # Number of snoops hitting in the snoop filter with a single holder of the requested data. (Count)
system.l2bus.snoop_filter.hitMultiSnoops            0                       # Number of snoops hitting in the snoop filter with multiple (>1) holders of the requested data. (Count)
system.l2cache.demandHits::cpu.inst           3625543                       # number of demand (read+write) hits (Count)
system.l2cache.demandHits::cpu.data            256796                       # number of demand (read+write) hits (Count)
system.l2cache.demandHits::total              3882339                       # number of demand (read+write) hits (Count)
system.l2cache.overallHits::cpu.inst          3625543                       # number of overall hits (Count)
system.l2cache.overallHits::cpu.data           256796                       # number of overall hits (Count)
system.l2cache.overallHits::total             3882339                       # number of overall hits (Count)
system.l2cache.demandMisses::cpu.inst             728                       # number of demand (read+write) misses (Count)
system.l2cache.demandMisses::cpu.data          279015                       # number of demand (read+write) misses (Count)
system.l2cache.demandMisses::total             279743                       # number of demand (read+write) misses (Count)
system.l2cache.overallMisses::cpu.inst            728                       # number of overall misses (Count)
system.l2cache.overallMisses::cpu.data         279015                       # number of overall misses (Count)
system.l2cache.overallMisses::total            279743                       # number of overall misses (Count)
system.l2cache.demandMissLatency::cpu.inst    102615000                       # number of demand (read+write) miss ticks (Tick)
system.l2cache.demandMissLatency::cpu.data  35637762000                       # number of demand (read+write) miss ticks (Tick)
system.l2cache.demandMissLatency::total   35740377000                       # number of demand (read+write) miss ticks (Tick)
system.l2cache.overallMissLatency::cpu.inst    102615000                       # number of overall miss ticks (Tick)
system.l2cache.overallMissLatency::cpu.data  35637762000                       # number of overall miss ticks (Tick)
system.l2cache.overallMissLatency::total  35740377000                       # number of overall miss ticks (Tick)
system.l2cache.demandAccesses::cpu.inst       3626271                       # number of demand (read+write) accesses (Count)
system.l2cache.demandAccesses::cpu.data        535811                       # number of demand (read+write) accesses (Count)
system.l2cache.demandAccesses::total          4162082                       # number of demand (read+write) accesses (Count)
system.l2cache.overallAccesses::cpu.inst      3626271                       # number of overall (read+write) accesses (Count)
system.l2cache.overallAccesses::cpu.data       535811                       # number of overall (read+write) accesses (Count)
system.l2cache.overallAccesses::total         4162082                       # number of overall (read+write) accesses (Count)
system.l2cache.demandMissRate::cpu.inst      0.000201                       # miss rate for demand accesses (Ratio)
system.l2cache.demandMissRate::cpu.data      0.520734                       # miss rate for demand accesses (Ratio)
system.l2cache.demandMissRate::total         0.067212                       # miss rate for demand accesses (Ratio)
system.l2cache.overallMissRate::cpu.inst     0.000201                       # miss rate for overall accesses (Ratio)
system.l2cache.overallMissRate::cpu.data     0.520734                       # miss rate for overall accesses (Ratio)
system.l2cache.overallMissRate::total        0.067212                       # miss rate for overall accesses (Ratio)
system.l2cache.demandAvgMissLatency::cpu.inst 140954.670330                       # average overall miss latency ((Cycle/Count))
system.l2cache.demandAvgMissLatency::cpu.data 127727.046933                       # average overall miss latency ((Cycle/Count))
system.l2cache.demandAvgMissLatency::total 127761.470350                       # average overall miss latency ((Cycle/Count))
system.l2cache.overallAvgMissLatency::cpu.inst 140954.670330                       # average overall miss latency ((Cycle/Count))
system.l2cache.overallAvgMissLatency::cpu.data 127727.046933                       # average overall miss latency ((Cycle/Count))
system.l2cache.overallAvgMissLatency::total 127761.470350                       # average overall miss latency ((Cycle/Count))
system.l2cache.blockedCycles::no_mshrs              0                       # number of cycles access was blocked (Cycle)
system.l2cache.blockedCycles::no_targets            0                       # number of cycles access was blocked (Cycle)
system.l2cache.blockedCauses::no_mshrs              0                       # number of times access was blocked (Count)
system.l2cache.blockedCauses::no_targets            0                       # number of times access was blocked (Count)
system.l2cache.avgBlocked::no_mshrs               nan                       # average number of cycles each access was blocked ((Cycle/Count))
system.l2cache.avgBlocked::no_targets             nan                       # average number of cycles each access was blocked ((Cycle/Count))
system.l2cache.writebacks::writebacks          203343                       # number of writebacks (Count)
system.l2cache.writebacks::total               203343                       # number of writebacks (Count)
system.l2cache.demandMshrMisses::cpu.inst          728                       # number of demand (read+write) MSHR misses (Count)
system.l2cache.demandMshrMisses::cpu.data       279015                       # number of demand (read+write) MSHR misses (Count)
system.l2cache.demandMshrMisses::total         279743                       # number of demand (read+write) MSHR misses (Count)
system.l2cache.overallMshrMisses::cpu.inst          728                       # number of overall MSHR misses (Count)
system.l2cache.overallMshrMisses::cpu.data       279015                       # number of overall MSHR misses (Count)
system.l2cache.overallMshrMisses::total        279743                       # number of overall MSHR misses (Count)
system.l2cache.demandMshrMissLatency::cpu.inst     88055000                       # number of demand (read+write) MSHR miss ticks (Tick)
system.l2cache.demandMshrMissLatency::cpu.data  30057462000                       # number of demand (read+write) MSHR miss ticks (Tick)
system.l2cache.demandMshrMissLatency::total  30145517000                       # number of demand (read+write) MSHR miss ticks (Tick)
system.l2cache.overallMshrMissLatency::cpu.inst     88055000                       # number of overall MSHR miss ticks (Tick)
system.l2cache.overallMshrMissLatency::cpu.data  30057462000                       # number of overall MSHR miss ticks (Tick)
system.l2cache.overallMshrMissLatency::total  30145517000                       # number of overall MSHR miss ticks (Tick)
system.l2cache.demandMshrMissRate::cpu.inst     0.000201                       # mshr miss ratio for demand accesses (Ratio)
system.l2cache.demandMshrMissRate::cpu.data     0.520734                       # mshr miss ratio for demand accesses (Ratio)
system.l2cache.demandMshrMissRate::total     0.067212                       # mshr miss ratio for demand accesses (Ratio)
system.l2cache.overallMshrMissRate::cpu.inst     0.000201                       # mshr miss ratio for overall accesses (Ratio)
system.l2cache.overallMshrMissRate::cpu.data     0.520734                       # mshr miss ratio for overall accesses (Ratio)
system.l2cache.overallMshrMissRate::total     0.067212                       # mshr miss ratio for overall accesses (Ratio)
system.l2cache.demandAvgMshrMissLatency::cpu.inst 120954.670330                       # average overall mshr miss latency ((Cycle/Count))
system.l2cache.demandAvgMshrMissLatency::cpu.data 107727.046933                       # average overall mshr miss latency ((Cycle/Count))
system.l2cache.demandAvgMshrMissLatency::total 107761.470350                       # average overall mshr miss latency ((Cycle/Count))
system.l2cache.overallAvgMshrMissLatency::cpu.inst 120954.670330                       # average overall mshr miss latency ((Cycle/Count))
system.l2cache.overallAvgMshrMissLatency::cpu.data 107727.046933                       # average overall mshr miss latency ((Cycle/Count))
system.l2cache.overallAvgMshrMissLatency::total 107761.470350                       # average overall mshr miss latency ((Cycle/Count))
system.l2cache.replacements                    271551                       # number of replacements (Count)
system.l2cache.CleanEvict.mshrMisses::writebacks          174                       # number of CleanEvict MSHR misses (Count)
system.l2cache.CleanEvict.mshrMisses::total          174                       # number of CleanEvict MSHR misses (Count)
system.l2cache.CleanEvict.mshrMissRate::writebacks          inf                       # mshr miss rate for CleanEvict accesses (Ratio)
system.l2cache.CleanEvict.mshrMissRate::total          inf                       # mshr miss rate for CleanEvict accesses (Ratio)
system.l2cache.ReadExReq.hits::cpu.data        100897                       # number of ReadExReq hits (Count)
system.l2cache.ReadExReq.hits::total           100897                       # number of ReadExReq hits (Count)
system.l2cache.ReadExReq.misses::cpu.data       139579                       # number of ReadExReq misses (Count)
system.l2cache.ReadExReq.misses::total         139579                       # number of ReadExReq misses (Count)
system.l2cache.ReadExReq.missLatency::cpu.data  20195121000                       # number of ReadExReq miss ticks (Tick)
system.l2cache.ReadExReq.missLatency::total  20195121000                       # number of ReadExReq miss ticks (Tick)
system.l2cache.ReadExReq.accesses::cpu.data       240476                       # number of ReadExReq accesses(hits+misses) (Count)
system.l2cache.ReadExReq.accesses::total       240476                       # number of ReadExReq accesses(hits+misses) (Count)
system.l2cache.ReadExReq.missRate::cpu.data     0.580428                       # miss rate for ReadExReq accesses (Ratio)
system.l2cache.ReadExReq.missRate::total     0.580428                       # miss rate for ReadExReq accesses (Ratio)
system.l2cache.ReadExReq.avgMissLatency::cpu.data 144685.955624                       # average ReadExReq miss latency ((Tick/Count))
system.l2cache.ReadExReq.avgMissLatency::total 144685.955624                       # average ReadExReq miss latency ((Tick/Count))
system.l2cache.ReadExReq.mshrMisses::cpu.data       139579                       # number of ReadExReq MSHR misses (Count)
system.l2cache.ReadExReq.mshrMisses::total       139579                       # number of ReadExReq MSHR misses (Count)
system.l2cache.ReadExReq.mshrMissLatency::cpu.data  17403541000                       # number of ReadExReq MSHR miss ticks (Tick)
system.l2cache.ReadExReq.mshrMissLatency::total  17403541000                       # number of ReadExReq MSHR miss ticks (Tick)
system.l2cache.ReadExReq.mshrMissRate::cpu.data     0.580428                       # mshr miss rate for ReadExReq accesses (Ratio)
system.l2cache.ReadExReq.mshrMissRate::total     0.580428                       # mshr miss rate for ReadExReq accesses (Ratio)
system.l2cache.ReadExReq.avgMshrMissLatency::cpu.data 124685.955624                       # average ReadExReq mshr miss latency ((Tick/Count))
system.l2cache.ReadExReq.avgMshrMissLatency::total 124685.955624                       # average ReadExReq mshr miss latency ((Tick/Count))
system.l2cache.ReadSharedReq.hits::cpu.inst      3625543                       # number of ReadSharedReq hits (Count)
system.l2cache.ReadSharedReq.hits::cpu.data       155899                       # number of ReadSharedReq hits (Count)
system.l2cache.ReadSharedReq.hits::total      3781442                       # number of ReadSharedReq hits (Count)
system.l2cache.ReadSharedReq.misses::cpu.inst          728                       # number of ReadSharedReq misses (Count)
system.l2cache.ReadSharedReq.misses::cpu.data       139436                       # number of ReadSharedReq misses (Count)
system.l2cache.ReadSharedReq.misses::total       140164                       # number of ReadSharedReq misses (Count)
system.l2cache.ReadSharedReq.missLatency::cpu.inst    102615000                       # number of ReadSharedReq miss ticks (Tick)
system.l2cache.ReadSharedReq.missLatency::cpu.data  15442641000                       # number of ReadSharedReq miss ticks (Tick)
system.l2cache.ReadSharedReq.missLatency::total  15545256000                       # number of ReadSharedReq miss ticks (Tick)
system.l2cache.ReadSharedReq.accesses::cpu.inst      3626271                       # number of ReadSharedReq accesses(hits+misses) (Count)
system.l2cache.ReadSharedReq.accesses::cpu.data       295335                       # number of ReadSharedReq accesses(hits+misses) (Count)
system.l2cache.ReadSharedReq.accesses::total      3921606                       # number of ReadSharedReq accesses(hits+misses) (Count)
system.l2cache.ReadSharedReq.missRate::cpu.inst     0.000201                       # miss rate for ReadSharedReq accesses (Ratio)
system.l2cache.ReadSharedReq.missRate::cpu.data     0.472128                       # miss rate for ReadSharedReq accesses (Ratio)
system.l2cache.ReadSharedReq.missRate::total     0.035741                       # miss rate for ReadSharedReq accesses (Ratio)
system.l2cache.ReadSharedReq.avgMissLatency::cpu.inst 140954.670330                       # average ReadSharedReq miss latency ((Tick/Count))
system.l2cache.ReadSharedReq.avgMissLatency::cpu.data 110750.745862                       # average ReadSharedReq miss latency ((Tick/Count))
system.l2cache.ReadSharedReq.avgMissLatency::total 110907.622499                       # average ReadSharedReq miss latency ((Tick/Count))
system.l2cache.ReadSharedReq.mshrMisses::cpu.inst          728                       # number of ReadSharedReq MSHR misses (Count)
system.l2cache.ReadSharedReq.mshrMisses::cpu.data       139436                       # number of ReadSharedReq MSHR misses (Count)
system.l2cache.ReadSharedReq.mshrMisses::total       140164                       # number of ReadSharedReq MSHR misses (Count)
system.l2cache.ReadSharedReq.mshrMissLatency::cpu.inst     88055000                       # number of ReadSharedReq MSHR miss ticks (Tick)
system.l2cache.ReadSharedReq.mshrMissLatency::cpu.data  12653921000                       # number of ReadSharedReq MSHR miss ticks (Tick)
system.l2cache.ReadSharedReq.mshrMissLatency::total  12741976000                       # number of ReadSharedReq MSHR miss ticks (Tick)
system.l2cache.ReadSharedReq.mshrMissRate::cpu.inst     0.000201                       # mshr miss rate for ReadSharedReq accesses (Ratio)
system.l2cache.ReadSharedReq.mshrMissRate::cpu.data     0.472128                       # mshr miss rate for ReadSharedReq accesses (Ratio)
system.l2cache.ReadSharedReq.mshrMissRate::total     0.035741                       # mshr miss rate for ReadSharedReq accesses (Ratio)
system.l2cache.ReadSharedReq.avgMshrMissLatency::cpu.inst 120954.670330                       # average ReadSharedReq mshr miss latency ((Tick/Count))
system.l2cache.ReadSharedReq.avgMshrMissLatency::cpu.data 90750.745862                       # average ReadSharedReq mshr miss latency ((Tick/Count))
system.l2cache.ReadSharedReq.avgMshrMissLatency::total 90907.622499                       # average ReadSharedReq mshr miss latency ((Tick/Count))
system.l2cache.WritebackDirty.hits::writebacks       342415                       # number of WritebackDirty hits (Count)
system.l2cache.WritebackDirty.hits::total       342415                       # number of WritebackDirty hits (Count)
system.l2cache.WritebackDirty.accesses::writebacks       342415                       # number of WritebackDirty accesses(hits+misses) (Count)
system.l2cache.WritebackDirty.accesses::total       342415                       # number of WritebackDirty accesses(hits+misses) (Count)
system.l2cache.power_state.pwrStateResidencyTicks::UNDEFINED 2895956658000                       # Cumulative time (in ticks) in various power states (Tick)
system.l2cache.tags.tagsInUse             8155.657948                       # Average ticks per tags in use ((Tick/Count))
system.l2cache.tags.totalRefs                 8323222                       # Total number of references to valid blocks. (Count)
system.l2cache.tags.sampledRefs                279743                       # Sample count of references to valid blocks. (Count)
system.l2cache.tags.avgRefs                 29.753102                       # Average number of references to valid blocks. ((Count/Count))
system.l2cache.tags.warmupTick                 128000                       # The tick when the warmup percentage was hit. (Tick)
system.l2cache.tags.occupancies::cpu.inst   158.961735                       # Average occupied blocks per tick, per requestor ((Count/Tick))
system.l2cache.tags.occupancies::cpu.data  7996.696213                       # Average occupied blocks per tick, per requestor ((Count/Tick))
system.l2cache.tags.avgOccs::cpu.inst        0.019405                       # Average percentage of cache occupancy ((Ratio/Tick))
system.l2cache.tags.avgOccs::cpu.data        0.976159                       # Average percentage of cache occupancy ((Ratio/Tick))
system.l2cache.tags.avgOccs::total           0.995564                       # Average percentage of cache occupancy ((Ratio/Tick))
system.l2cache.tags.occupanciesTaskId::1024         8192                       # Occupied blocks per task id (Count)
system.l2cache.tags.ageTaskId_1024::0              56                       # Occupied blocks per task id, per block age (Count)
system.l2cache.tags.ageTaskId_1024::1              52                       # Occupied blocks per task id, per block age (Count)
system.l2cache.tags.ageTaskId_1024::2              53                       # Occupied blocks per task id, per block age (Count)
system.l2cache.tags.ageTaskId_1024::3             522                       # Occupied blocks per task id, per block age (Count)
system.l2cache.tags.ageTaskId_1024::4            7509                       # Occupied blocks per task id, per block age (Count)
system.l2cache.tags.ratioOccsTaskId::1024            1                       # Ratio of occupied blocks and all blocks, per task id (Ratio)
system.l2cache.tags.tagAccesses              66866911                       # Number of tag accesses (Count)
system.l2cache.tags.dataAccesses             66866911                       # Number of data accesses (Count)
system.l2cache.tags.power_state.pwrStateResidencyTicks::UNDEFINED 2895956658000                       # Cumulative time (in ticks) in various power states (Tick)
system.l3bus.transDist::ReadResp               140164                       # Transaction distribution (Count)
system.l3bus.transDist::WritebackDirty         278885                       # Transaction distribution (Count)
system.l3bus.transDist::CleanEvict              77295                       # Transaction distribution (Count)
system.l3bus.transDist::ReadExReq              139579                       # Transaction distribution (Count)
system.l3bus.transDist::ReadExResp             139579                       # Transaction distribution (Count)
system.l3bus.transDist::ReadSharedReq          140164                       # Transaction distribution (Count)
system.l3bus.pktCount_system.l2cache.mem_side_port::system.l3cache.cpu_side_port       830917                       # Packet count per connected requestor and responder (Count)
system.l3bus.pktSize_system.l2cache.mem_side_port::system.l3cache.cpu_side_port     30917504                       # Cumulative packet size per connected requestor and responder (Byte)
system.l3bus.snoops                             84749                       # Total snoops (Count)
system.l3bus.snoopTraffic                     4834688                       # Total snoop traffic (Byte)
system.l3bus.snoopFanout::samples              364492                       # Request fanout histogram (Count)
system.l3bus.snoopFanout::mean               0.001841                       # Request fanout histogram (Count)
system.l3bus.snoopFanout::stdev              0.042866                       # Request fanout histogram (Count)
system.l3bus.snoopFanout::underflows                0      0.00%      0.00% # Request fanout histogram (Count)
system.l3bus.snoopFanout::0                    363821     99.82%     99.82% # Request fanout histogram (Count)
system.l3bus.snoopFanout::1                       671      0.18%    100.00% # Request fanout histogram (Count)
system.l3bus.snoopFanout::overflows                 0      0.00%    100.00% # Request fanout histogram (Count)
system.l3bus.snoopFanout::min_value                 0                       # Request fanout histogram (Count)
system.l3bus.snoopFanout::max_value                 1                       # Request fanout histogram (Count)
system.l3bus.snoopFanout::total                364492                       # Request fanout histogram (Count)
system.l3bus.power_state.pwrStateResidencyTicks::UNDEFINED 2895956658000                       # Cumulative time (in ticks) in various power states (Tick)
system.l3bus.reqLayer0.occupancy            957860000                       # Layer occupancy (ticks) (Tick)
system.l3bus.reqLayer0.utilization                0.0                       # Layer utilization (Ratio)
system.l3bus.respLayer0.occupancy           839229000                       # Layer occupancy (ticks) (Tick)
system.l3bus.respLayer0.utilization               0.0                       # Layer utilization (Ratio)
system.l3bus.snoop_filter.totRequests          551174                       # Total number of requests made to the snoop filter. (Count)
system.l3bus.snoop_filter.hitSingleRequests       271431                       # Number of requests hitting in the snoop filter with a single holder of the requested data. (Count)
system.l3bus.snoop_filter.hitMultiRequests            0                       # Number of requests hitting in the snoop filter with multiple (>1) holders of the requested data. (Count)
system.l3bus.snoop_filter.totSnoops               671                       # Total number of snoops made to the snoop filter. (Count)
system.l3bus.snoop_filter.hitSingleSnoops          671                       # Number of snoops hitting in the snoop filter with a single holder of the requested data. (Count)
system.l3bus.snoop_filter.hitMultiSnoops            0                       # Number of snoops hitting in the snoop filter with multiple (>1) holders of the requested data. (Count)
system.l3cache.demandHits::cpu.data             63922                       # number of demand (read+write) hits (Count)
system.l3cache.demandHits::total                63922                       # number of demand (read+write) hits (Count)
system.l3cache.overallHits::cpu.data            63922                       # number of overall hits (Count)
system.l3cache.overallHits::total               63922                       # number of overall hits (Count)
system.l3cache.demandMisses::cpu.inst             728                       # number of demand (read+write) misses (Count)
system.l3cache.demandMisses::cpu.data          215093                       # number of demand (read+write) misses (Count)
system.l3cache.demandMisses::total             215821                       # number of demand (read+write) misses (Count)
system.l3cache.overallMisses::cpu.inst            728                       # number of overall misses (Count)
system.l3cache.overallMisses::cpu.data         215093                       # number of overall misses (Count)
system.l3cache.overallMisses::total            215821                       # number of overall misses (Count)
system.l3cache.demandMissLatency::cpu.inst     72039000                       # number of demand (read+write) miss ticks (Tick)
system.l3cache.demandMissLatency::cpu.data  22576770000                       # number of demand (read+write) miss ticks (Tick)
system.l3cache.demandMissLatency::total   22648809000                       # number of demand (read+write) miss ticks (Tick)
system.l3cache.overallMissLatency::cpu.inst     72039000                       # number of overall miss ticks (Tick)
system.l3cache.overallMissLatency::cpu.data  22576770000                       # number of overall miss ticks (Tick)
system.l3cache.overallMissLatency::total  22648809000                       # number of overall miss ticks (Tick)
system.l3cache.demandAccesses::cpu.inst           728                       # number of demand (read+write) accesses (Count)
system.l3cache.demandAccesses::cpu.data        279015                       # number of demand (read+write) accesses (Count)
system.l3cache.demandAccesses::total           279743                       # number of demand (read+write) accesses (Count)
system.l3cache.overallAccesses::cpu.inst          728                       # number of overall (read+write) accesses (Count)
system.l3cache.overallAccesses::cpu.data       279015                       # number of overall (read+write) accesses (Count)
system.l3cache.overallAccesses::total          279743                       # number of overall (read+write) accesses (Count)
system.l3cache.demandMissRate::cpu.inst             1                       # miss rate for demand accesses (Ratio)
system.l3cache.demandMissRate::cpu.data      0.770901                       # miss rate for demand accesses (Ratio)
system.l3cache.demandMissRate::total         0.771497                       # miss rate for demand accesses (Ratio)
system.l3cache.overallMissRate::cpu.inst            1                       # miss rate for overall accesses (Ratio)
system.l3cache.overallMissRate::cpu.data     0.770901                       # miss rate for overall accesses (Ratio)
system.l3cache.overallMissRate::total        0.771497                       # miss rate for overall accesses (Ratio)
system.l3cache.demandAvgMissLatency::cpu.inst 98954.670330                       # average overall miss latency ((Cycle/Count))
system.l3cache.demandAvgMissLatency::cpu.data 104962.830032                       # average overall miss latency ((Cycle/Count))
system.l3cache.demandAvgMissLatency::total 104942.563513                       # average overall miss latency ((Cycle/Count))
system.l3cache.overallAvgMissLatency::cpu.inst 98954.670330                       # average overall miss latency ((Cycle/Count))
system.l3cache.overallAvgMissLatency::cpu.data 104962.830032                       # average overall miss latency ((Cycle/Count))
system.l3cache.overallAvgMissLatency::total 104942.563513                       # average overall miss latency ((Cycle/Count))
system.l3cache.blockedCycles::no_mshrs              0                       # number of cycles access was blocked (Cycle)
system.l3cache.blockedCycles::no_targets            0                       # number of cycles access was blocked (Cycle)
system.l3cache.blockedCauses::no_mshrs              0                       # number of times access was blocked (Count)
system.l3cache.blockedCauses::no_targets            0                       # number of times access was blocked (Count)
system.l3cache.avgBlocked::no_mshrs               nan                       # average number of cycles each access was blocked ((Cycle/Count))
system.l3cache.avgBlocked::no_targets             nan                       # average number of cycles each access was blocked ((Cycle/Count))
system.l3cache.writebacks::writebacks           75542                       # number of writebacks (Count)
system.l3cache.writebacks::total                75542                       # number of writebacks (Count)
system.l3cache.demandMshrMisses::cpu.inst          728                       # number of demand (read+write) MSHR misses (Count)
system.l3cache.demandMshrMisses::cpu.data       215093                       # number of demand (read+write) MSHR misses (Count)
system.l3cache.demandMshrMisses::total         215821                       # number of demand (read+write) MSHR misses (Count)
system.l3cache.overallMshrMisses::cpu.inst          728                       # number of overall MSHR misses (Count)
system.l3cache.overallMshrMisses::cpu.data       215093                       # number of overall MSHR misses (Count)
system.l3cache.overallMshrMisses::total        215821                       # number of overall MSHR misses (Count)
system.l3cache.demandMshrMissLatency::cpu.inst     57479000                       # number of demand (read+write) MSHR miss ticks (Tick)
system.l3cache.demandMshrMissLatency::cpu.data  18274910000                       # number of demand (read+write) MSHR miss ticks (Tick)
system.l3cache.demandMshrMissLatency::total  18332389000                       # number of demand (read+write) MSHR miss ticks (Tick)
system.l3cache.overallMshrMissLatency::cpu.inst     57479000                       # number of overall MSHR miss ticks (Tick)
system.l3cache.overallMshrMissLatency::cpu.data  18274910000                       # number of overall MSHR miss ticks (Tick)
system.l3cache.overallMshrMissLatency::total  18332389000                       # number of overall MSHR miss ticks (Tick)
system.l3cache.demandMshrMissRate::cpu.inst            1                       # mshr miss ratio for demand accesses (Ratio)
system.l3cache.demandMshrMissRate::cpu.data     0.770901                       # mshr miss ratio for demand accesses (Ratio)
system.l3cache.demandMshrMissRate::total     0.771497                       # mshr miss ratio for demand accesses (Ratio)
system.l3cache.overallMshrMissRate::cpu.inst            1                       # mshr miss ratio for overall accesses (Ratio)
system.l3cache.overallMshrMissRate::cpu.data     0.770901                       # mshr miss ratio for overall accesses (Ratio)
system.l3cache.overallMshrMissRate::total     0.771497                       # mshr miss ratio for overall accesses (Ratio)
system.l3cache.demandAvgMshrMissLatency::cpu.inst 78954.670330                       # average overall mshr miss latency ((Cycle/Count))
system.l3cache.demandAvgMshrMissLatency::cpu.data 84962.830032                       # average overall mshr miss latency ((Cycle/Count))
system.l3cache.demandAvgMshrMissLatency::total 84942.563513                       # average overall mshr miss latency ((Cycle/Count))
system.l3cache.overallAvgMshrMissLatency::cpu.inst 78954.670330                       # average overall mshr miss latency ((Cycle/Count))
system.l3cache.overallAvgMshrMissLatency::cpu.data 84962.830032                       # average overall mshr miss latency ((Cycle/Count))
system.l3cache.overallAvgMshrMissLatency::total 84942.563513                       # average overall mshr miss latency ((Cycle/Count))
system.l3cache.replacements                     84749                       # number of replacements (Count)
system.l3cache.CleanEvict.mshrMisses::writebacks          173                       # number of CleanEvict MSHR misses (Count)
system.l3cache.CleanEvict.mshrMisses::total          173                       # number of CleanEvict MSHR misses (Count)
system.l3cache.CleanEvict.mshrMissRate::writebacks          inf                       # mshr miss rate for CleanEvict accesses (Ratio)
system.l3cache.CleanEvict.mshrMissRate::total          inf                       # mshr miss rate for CleanEvict accesses (Ratio)
system.l3cache.ReadExReq.hits::cpu.data             6                       # number of ReadExReq hits (Count)
system.l3cache.ReadExReq.hits::total                6                       # number of ReadExReq hits (Count)
system.l3cache.ReadExReq.misses::cpu.data       139573                       # number of ReadExReq misses (Count)
system.l3cache.ReadExReq.misses::total         139573                       # number of ReadExReq misses (Count)
system.l3cache.ReadExReq.missLatency::cpu.data  14332677000                       # number of ReadExReq miss ticks (Tick)
system.l3cache.ReadExReq.missLatency::total  14332677000                       # number of ReadExReq miss ticks (Tick)
system.l3cache.ReadExReq.accesses::cpu.data       139579                       # number of ReadExReq accesses(hits+misses) (Count)
system.l3cache.ReadExReq.accesses::total       139579                       # number of ReadExReq accesses(hits+misses) (Count)
system.l3cache.ReadExReq.missRate::cpu.data     0.999957                       # miss rate for ReadExReq accesses (Ratio)
system.l3cache.ReadExReq.missRate::total     0.999957                       # miss rate for ReadExReq accesses (Ratio)
system.l3cache.ReadExReq.avgMissLatency::cpu.data 102689.467161                       # average ReadExReq miss latency ((Tick/Count))
system.l3cache.ReadExReq.avgMissLatency::total 102689.467161                       # average ReadExReq miss latency ((Tick/Count))
system.l3cache.ReadExReq.mshrMisses::cpu.data       139573                       # number of ReadExReq MSHR misses (Count)
system.l3cache.ReadExReq.mshrMisses::total       139573                       # number of ReadExReq MSHR misses (Count)
system.l3cache.ReadExReq.mshrMissLatency::cpu.data  11541217000                       # number of ReadExReq MSHR miss ticks (Tick)
system.l3cache.ReadExReq.mshrMissLatency::total  11541217000                       # number of ReadExReq MSHR miss ticks (Tick)
system.l3cache.ReadExReq.mshrMissRate::cpu.data     0.999957                       # mshr miss rate for ReadExReq accesses (Ratio)
system.l3cache.ReadExReq.mshrMissRate::total     0.999957                       # mshr miss rate for ReadExReq accesses (Ratio)
system.l3cache.ReadExReq.avgMshrMissLatency::cpu.data 82689.467161                       # average ReadExReq mshr miss latency ((Tick/Count))
system.l3cache.ReadExReq.avgMshrMissLatency::total 82689.467161                       # average ReadExReq mshr miss latency ((Tick/Count))
system.l3cache.ReadSharedReq.hits::cpu.data        63916                       # number of ReadSharedReq hits (Count)
system.l3cache.ReadSharedReq.hits::total        63916                       # number of ReadSharedReq hits (Count)
system.l3cache.ReadSharedReq.misses::cpu.inst          728                       # number of ReadSharedReq misses (Count)
system.l3cache.ReadSharedReq.misses::cpu.data        75520                       # number of ReadSharedReq misses (Count)
system.l3cache.ReadSharedReq.misses::total        76248                       # number of ReadSharedReq misses (Count)
system.l3cache.ReadSharedReq.missLatency::cpu.inst     72039000                       # number of ReadSharedReq miss ticks (Tick)
system.l3cache.ReadSharedReq.missLatency::cpu.data   8244093000                       # number of ReadSharedReq miss ticks (Tick)
system.l3cache.ReadSharedReq.missLatency::total   8316132000                       # number of ReadSharedReq miss ticks (Tick)
system.l3cache.ReadSharedReq.accesses::cpu.inst          728                       # number of ReadSharedReq accesses(hits+misses) (Count)
system.l3cache.ReadSharedReq.accesses::cpu.data       139436                       # number of ReadSharedReq accesses(hits+misses) (Count)
system.l3cache.ReadSharedReq.accesses::total       140164                       # number of ReadSharedReq accesses(hits+misses) (Count)
system.l3cache.ReadSharedReq.missRate::cpu.inst            1                       # miss rate for ReadSharedReq accesses (Ratio)
system.l3cache.ReadSharedReq.missRate::cpu.data     0.541610                       # miss rate for ReadSharedReq accesses (Ratio)
system.l3cache.ReadSharedReq.missRate::total     0.543991                       # miss rate for ReadSharedReq accesses (Ratio)
system.l3cache.ReadSharedReq.avgMissLatency::cpu.inst 98954.670330                       # average ReadSharedReq miss latency ((Tick/Count))
system.l3cache.ReadSharedReq.avgMissLatency::cpu.data 109164.367055                       # average ReadSharedReq miss latency ((Tick/Count))
system.l3cache.ReadSharedReq.avgMissLatency::total 109066.887000                       # average ReadSharedReq miss latency ((Tick/Count))
system.l3cache.ReadSharedReq.mshrMisses::cpu.inst          728                       # number of ReadSharedReq MSHR misses (Count)
system.l3cache.ReadSharedReq.mshrMisses::cpu.data        75520                       # number of ReadSharedReq MSHR misses (Count)
system.l3cache.ReadSharedReq.mshrMisses::total        76248                       # number of ReadSharedReq MSHR misses (Count)
system.l3cache.ReadSharedReq.mshrMissLatency::cpu.inst     57479000                       # number of ReadSharedReq MSHR miss ticks (Tick)
[...]
system.mem_ctrl.dram.bytesInstRead::total        46592                       # Number of instructions bytes read from this memory (Byte)
system.mem_ctrl.dram.bytesWritten::writebacks      4834688                       # Number of bytes written to this memory (Byte)
system.mem_ctrl.dram.bytesWritten::total      4834688                       # Number of bytes written to this memory (Byte)
system.mem_ctrl.dram.numReads::cpu.inst           728                       # Number of read requests responded to by this memory (Count)
system.mem_ctrl.dram.numReads::cpu.data        215093                       # Number of read requests responded to by this memory (Count)
system.mem_ctrl.dram.numReads::total           215821                       # Number of read requests responded to by this memory (Count)
system.mem_ctrl.dram.numWrites::writebacks        75542                       # Number of write requests responded to by this memory (Count)
system.mem_ctrl.dram.numWrites::total           75542                       # Number of write requests responded to by this memory (Count)
system.mem_ctrl.dram.bwRead::cpu.inst           16089                       # Total read bandwidth from this memory ((Byte/Second))
system.mem_ctrl.dram.bwRead::cpu.data         4753508                       # Total read bandwidth from this memory ((Byte/Second))
system.mem_ctrl.dram.bwRead::total            4769596                       # Total read bandwidth from this memory ((Byte/Second))
system.mem_ctrl.dram.bwInstRead::cpu.inst        16089                       # Instruction read bandwidth from this memory ((Byte/Second))
system.mem_ctrl.dram.bwInstRead::total          16089                       # Instruction read bandwidth from this memory ((Byte/Second))
system.mem_ctrl.dram.bwWrite::writebacks      1669461                       # Write bandwidth from this memory ((Byte/Second))
system.mem_ctrl.dram.bwWrite::total           1669461                       # Write bandwidth from this memory ((Byte/Second))
system.mem_ctrl.dram.bwTotal::writebacks      1669461                       # Total bandwidth to/from this memory ((Byte/Second))
system.mem_ctrl.dram.bwTotal::cpu.inst          16089                       # Total bandwidth to/from this memory ((Byte/Second))
system.mem_ctrl.dram.bwTotal::cpu.data        4753508                       # Total bandwidth to/from this memory ((Byte/Second))
system.mem_ctrl.dram.bwTotal::total           6439058                       # Total bandwidth to/from this memory ((Byte/Second))
system.mem_ctrl.dram.readBursts                215806                       # Number of DRAM read bursts (Count)
system.mem_ctrl.dram.writeBursts                75523                       # Number of DRAM write bursts (Count)
system.mem_ctrl.dram.perBankRdBursts::0         13486                       # Per bank write bursts (Count)
system.mem_ctrl.dram.perBankRdBursts::1         13473                       # Per bank write bursts (Count)
system.mem_ctrl.dram.perBankRdBursts::2         13494                       # Per bank write bursts (Count)
system.mem_ctrl.dram.perBankRdBursts::3         13372                       # Per bank write bursts (Count)
system.mem_ctrl.dram.perBankRdBursts::4         13684                       # Per bank write bursts (Count)
system.mem_ctrl.dram.perBankRdBursts::5         13884                       # Per bank write bursts (Count)
system.mem_ctrl.dram.perBankRdBursts::6         13480                       # Per bank write bursts (Count)
system.mem_ctrl.dram.perBankRdBursts::7         13940                       # Per bank write bursts (Count)
system.mem_ctrl.dram.perBankRdBursts::8         13360                       # Per bank write bursts (Count)
system.mem_ctrl.dram.perBankRdBursts::9         13367                       # Per bank write bursts (Count)
system.mem_ctrl.dram.perBankRdBursts::10        13369                       # Per bank write bursts (Count)
system.mem_ctrl.dram.perBankRdBursts::11        13412                       # Per bank write bursts (Count)
system.mem_ctrl.dram.perBankRdBursts::12        13371                       # Per bank write bursts (Count)
system.mem_ctrl.dram.perBankRdBursts::13        13369                       # Per bank write bursts (Count)
system.mem_ctrl.dram.perBankRdBursts::14        13351                       # Per bank write bursts (Count)
system.mem_ctrl.dram.perBankRdBursts::15        13394                       # Per bank write bursts (Count)
system.mem_ctrl.dram.perBankWrBursts::0          4608                       # Per bank write bursts (Count)
system.mem_ctrl.dram.perBankWrBursts::1          4616                       # Per bank write bursts (Count)
system.mem_ctrl.dram.perBankWrBursts::2          4756                       # Per bank write bursts (Count)
system.mem_ctrl.dram.perBankWrBursts::3          4657                       # Per bank write bursts (Count)
system.mem_ctrl.dram.perBankWrBursts::4          4884                       # Per bank write bursts (Count)
system.mem_ctrl.dram.perBankWrBursts::5          5099                       # Per bank write bursts (Count)
system.mem_ctrl.dram.perBankWrBursts::6          4770                       # Per bank write bursts (Count)
system.mem_ctrl.dram.perBankWrBursts::7          5120                       # Per bank write bursts (Count)
system.mem_ctrl.dram.perBankWrBursts::8          4608                       # Per bank write bursts (Count)
system.mem_ctrl.dram.perBankWrBursts::9          4648                       # Per bank write bursts (Count)
system.mem_ctrl.dram.perBankWrBursts::10         4608                       # Per bank write bursts (Count)
system.mem_ctrl.dram.perBankWrBursts::11         4680                       # Per bank write bursts (Count)
system.mem_ctrl.dram.perBankWrBursts::12         4608                       # Per bank write bursts (Count)
system.mem_ctrl.dram.perBankWrBursts::13         4608                       # Per bank write bursts (Count)
system.mem_ctrl.dram.perBankWrBursts::14         4609                       # Per bank write bursts (Count)
system.mem_ctrl.dram.perBankWrBursts::15         4644                       # Per bank write bursts (Count)
system.mem_ctrl.dram.totQLat               3190689750                       # Total ticks spent queuing (Tick)
system.mem_ctrl.dram.totBusLat             1079030000                       # Total ticks spent in databus transfers (Tick)
system.mem_ctrl.dram.totMemAccLat          7237052250                       # Total ticks spent from burst creation until serviced by the DRAM (Tick)
system.mem_ctrl.dram.avgQLat                 14784.99                       # Average queueing delay per DRAM burst ((Tick/Count))
system.mem_ctrl.dram.avgBusLat                5000.00                       # Average bus latency per DRAM burst ((Tick/Count))
system.mem_ctrl.dram.avgMemAccLat            33534.99                       # Average memory access latency per DRAM burst ((Tick/Count))
system.mem_ctrl.dram.readRowHits                74367                       # Number of row buffer hits during reads (Count)
system.mem_ctrl.dram.writeRowHits               66892                       # Number of row buffer hits during writes (Count)
system.mem_ctrl.dram.readRowHitRate             34.46                       # Row buffer hit rate for reads (Ratio)
system.mem_ctrl.dram.writeRowHitRate            88.57                       # Row buffer hit rate for writes (Ratio)
system.mem_ctrl.dram.bytesPerActivate::samples       150067                       # Bytes accessed per row activation (Byte)
system.mem_ctrl.dram.bytesPerActivate::mean   124.242745                       # Bytes accessed per row activation (Byte)
system.mem_ctrl.dram.bytesPerActivate::gmean    97.603039                       # Bytes accessed per row activation (Byte)
system.mem_ctrl.dram.bytesPerActivate::stdev   154.074315                       # Bytes accessed per row activation (Byte)
system.mem_ctrl.dram.bytesPerActivate::0-127        77878     51.90%     51.90% # Bytes accessed per row activation (Byte)
system.mem_ctrl.dram.bytesPerActivate::128-255        67411     44.92%     96.82% # Bytes accessed per row activation (Byte)
system.mem_ctrl.dram.bytesPerActivate::256-383          240      0.16%     96.98% # Bytes accessed per row activation (Byte)
system.mem_ctrl.dram.bytesPerActivate::384-511          194      0.13%     97.11% # Bytes accessed per row activation (Byte)
system.mem_ctrl.dram.bytesPerActivate::512-639          189      0.13%     97.23% # Bytes accessed per row activation (Byte)
system.mem_ctrl.dram.bytesPerActivate::640-767          185      0.12%     97.35% # Bytes accessed per row activation (Byte)
system.mem_ctrl.dram.bytesPerActivate::768-895          179      0.12%     97.47% # Bytes accessed per row activation (Byte)
system.mem_ctrl.dram.bytesPerActivate::896-1023          228      0.15%     97.63% # Bytes accessed per row activation (Byte)
system.mem_ctrl.dram.bytesPerActivate::1024-1151         3563      2.37%    100.00% # Bytes accessed per row activation (Byte)
system.mem_ctrl.dram.bytesPerActivate::total       150067                       # Bytes accessed per row activation (Byte)
system.mem_ctrl.dram.bytesRead               13811584                       # Total bytes read (Byte)
system.mem_ctrl.dram.bytesWritten             4833472                       # Total bytes written (Byte)
system.mem_ctrl.dram.avgRdBW                 4.769265                       # Average DRAM read bandwidth in MiBytes/s ((Byte/Second))
system.mem_ctrl.dram.avgWrBW                 1.669042                       # Average DRAM write bandwidth in MiBytes/s ((Byte/Second))
system.mem_ctrl.dram.peakBW                  12800.00                       # Theoretical peak bandwidth in MiByte/s ((Byte/Second))
system.mem_ctrl.dram.busUtil                     0.05                       # Data bus utilization in percentage (Ratio)
system.mem_ctrl.dram.busUtilRead                 0.04                       # Data bus utilization in percentage for reads (Ratio)
system.mem_ctrl.dram.busUtilWrite                0.01                       # Data bus utilization in percentage for writes (Ratio)
system.mem_ctrl.dram.pageHitRate                48.49                       # Row buffer hit rate, read and write combined (Ratio)
system.mem_ctrl.dram.power_state.pwrStateResidencyTicks::UNDEFINED 2895956658000                       # Cumulative time (in ticks) in various power states (Tick)
system.mem_ctrl.dram.rank0.actEnergy        542140200                       # Energy for activate commands per rank (pJ) (Joule)
system.mem_ctrl.dram.rank0.preEnergy        288146760                       # Energy for precharge commands per rank (pJ) (Joule)
system.mem_ctrl.dram.rank0.readEnergy       776924820                       # Energy for read commands per rank (pJ) (Joule)
system.mem_ctrl.dram.rank0.writeEnergy      201022200                       # Energy for write commands per rank (pJ) (Joule)
system.mem_ctrl.dram.rank0.refreshEnergy 228604284480.000031                       # Energy for refresh commands per rank (pJ) (Joule)
system.mem_ctrl.dram.rank0.actBackEnergy 198178359810                       # Energy for active background per rank (pJ) (Joule)
system.mem_ctrl.dram.rank0.preBackEnergy 945160317120                       # Energy for precharge background per rank (pJ) (Joule)
system.mem_ctrl.dram.rank0.actPowerDownEnergy            0                       # Energy for active power-down per rank (pJ) (Joule)
system.mem_ctrl.dram.rank0.prePowerDownEnergy            0                       # Energy for precharge power-down per rank (pJ) (Joule)
system.mem_ctrl.dram.rank0.selfRefreshEnergy            0                       # Energy for self refresh per rank (pJ) (Joule)
system.mem_ctrl.dram.rank0.totalEnergy   1373751195390                       # Total energy per rank (pJ) (Joule)
system.mem_ctrl.dram.rank0.averagePower    474.368700                       # Core power per rank (mW) (Watt)
system.mem_ctrl.dram.rank0.totalIdleTime            0                       # Total Idle time Per DRAM Rank (Tick)
system.mem_ctrl.dram.rank0.pwrStateTime::IDLE 2455185542000                       # Time in different power states (Tick)
system.mem_ctrl.dram.rank0.pwrStateTime::REF  96702320000                       # Time in different power states (Tick)
system.mem_ctrl.dram.rank0.pwrStateTime::SREF            0                       # Time in different power states (Tick)
system.mem_ctrl.dram.rank0.pwrStateTime::PRE_PDN            0                       # Time in different power states (Tick)
system.mem_ctrl.dram.rank0.pwrStateTime::ACT 344068796000                       # Time in different power states (Tick)
system.mem_ctrl.dram.rank0.pwrStateTime::ACT_PDN            0                       # Time in different power states (Tick)
system.mem_ctrl.dram.rank1.actEnergy        529359600                       # Energy for activate commands per rank (pJ) (Joule)
system.mem_ctrl.dram.rank1.preEnergy        281357505                       # Energy for precharge commands per rank (pJ) (Joule)
system.mem_ctrl.dram.rank1.readEnergy       763930020                       # Energy for read commands per rank (pJ) (Joule)
system.mem_ctrl.dram.rank1.writeEnergy      193207860                       # Energy for write commands per rank (pJ) (Joule)
system.mem_ctrl.dram.rank1.refreshEnergy 228604284480.000031                       # Energy for refresh commands per rank (pJ) (Joule)
system.mem_ctrl.dram.rank1.actBackEnergy 195533717700                       # Energy for active background per rank (pJ) (Joule)
system.mem_ctrl.dram.rank1.preBackEnergy 947387384160                       # Energy for precharge background per rank (pJ) (Joule)
system.mem_ctrl.dram.rank1.actPowerDownEnergy            0                       # Energy for active power-down per rank (pJ) (Joule)
system.mem_ctrl.dram.rank1.prePowerDownEnergy            0                       # Energy for precharge power-down per rank (pJ) (Joule)
system.mem_ctrl.dram.rank1.selfRefreshEnergy            0                       # Energy for self refresh per rank (pJ) (Joule)
system.mem_ctrl.dram.rank1.totalEnergy   1373293241325                       # Total energy per rank (pJ) (Joule)
system.mem_ctrl.dram.rank1.averagePower    474.210564                       # Core power per rank (mW) (Watt)
system.mem_ctrl.dram.rank1.totalIdleTime            0                       # Total Idle time Per DRAM Rank (Tick)
system.mem_ctrl.dram.rank1.pwrStateTime::IDLE 2461007070000                       # Time in different power states (Tick)
system.mem_ctrl.dram.rank1.pwrStateTime::REF  96702320000                       # Time in different power states (Tick)
system.mem_ctrl.dram.rank1.pwrStateTime::SREF            0                       # Time in different power states (Tick)
system.mem_ctrl.dram.rank1.pwrStateTime::PRE_PDN            0                       # Time in different power states (Tick)
system.mem_ctrl.dram.rank1.pwrStateTime::ACT 338247268000                       # Time in different power states (Tick)
system.mem_ctrl.dram.rank1.pwrStateTime::ACT_PDN            0                       # Time in different power states (Tick)
system.mem_ctrl.power_state.pwrStateResidencyTicks::UNDEFINED 2895956658000                       # Cumulative time (in ticks) in various power states (Tick)
system.membus.transDist::ReadResp               76248                       # Transaction distribution (Count)
system.membus.transDist::WritebackDirty         75542                       # Transaction distribution (Count)
system.membus.transDist::CleanEvict              8709                       # Transaction distribution (Count)
system.membus.transDist::ReadExReq             139573                       # Transaction distribution (Count)
system.membus.transDist::ReadExResp            139573                       # Transaction distribution (Count)
system.membus.transDist::ReadSharedReq          76248                       # Transaction distribution (Count)
system.membus.pktCount_system.l3cache.mem_side_port::system.mem_ctrl.port       515893                       # Packet count per connected requestor and responder (Count)
system.membus.pktCount::total                  515893                       # Packet count per connected requestor and responder (Count)
system.membus.pktSize_system.l3cache.mem_side_port::system.mem_ctrl.port     18647232                       # Cumulative packet size per connected requestor and responder (Byte)
system.membus.pktSize::total                 18647232                       # Cumulative packet size per connected requestor and responder (Byte)
system.membus.snoops                                0                       # Total snoops (Count)
system.membus.snoopTraffic                          0                       # Total snoop traffic (Byte)
system.membus.snoopFanout::samples             215821                       # Request fanout histogram (Count)
system.membus.snoopFanout::mean                     0                       # Request fanout histogram (Count)
system.membus.snoopFanout::stdev                    0                       # Request fanout histogram (Count)
system.membus.snoopFanout::underflows               0      0.00%      0.00% # Request fanout histogram (Count)
system.membus.snoopFanout::0                   215821    100.00%    100.00% # Request fanout histogram (Count)
system.membus.snoopFanout::1                        0      0.00%    100.00% # Request fanout histogram (Count)
system.membus.snoopFanout::overflows                0      0.00%    100.00% # Request fanout histogram (Count)
system.membus.snoopFanout::min_value                0                       # Request fanout histogram (Count)
system.membus.snoopFanout::max_value                0                       # Request fanout histogram (Count)
system.membus.snoopFanout::total               215821                       # Request fanout histogram (Count)
system.membus.power_state.pwrStateResidencyTicks::UNDEFINED 2895956658000                       # Cumulative time (in ticks) in various power states (Tick)
system.membus.reqLayer0.occupancy           602240000                       # Layer occupancy (ticks) (Tick)
system.membus.reqLayer0.utilization               0.0                       # Layer utilization (Ratio)
system.membus.respLayer0.occupancy         1167720250                       # Layer occupancy (ticks) (Tick)
system.membus.respLayer0.utilization              0.0                       # Layer utilization (Ratio)
system.membus.snoop_filter.totRequests         300072                       # Total number of requests made to the snoop filter. (Count)
system.membus.snoop_filter.hitSingleRequests        84251                       # Number of requests hitting in the snoop filter with a single holder of the requested data. (Count)
system.membus.snoop_filter.hitMultiRequests            0                       # Number of requests hitting in the snoop filter with multiple (>1) holders of the requested data. (Count)
system.membus.snoop_filter.totSnoops                0                       # Total number of snoops made to the snoop filter. (Count)
system.membus.snoop_filter.hitSingleSnoops            0                       # Number of snoops hitting in the snoop filter with a single holder of the requested data. (Count)
system.membus.snoop_filter.hitMultiSnoops            0                       # Number of snoops hitting in the snoop filter with multiple (>1) holders of the requested data. (Count)
system.workload.inst.arm                            0                       # number of arm instructions executed (Count)
system.workload.inst.quiesce                        0                       # number of quiesce instructions executed (Count)

---------- End Simulation Statistics   ----------
