
---------- Begin Simulation Statistics ----------
simSeconds                                   1.536132                       # Number of seconds simulated (Second)
simTicks                                 1536131821000                       # Number of ticks simulated (Tick)
finalTick                                1536131821000                       # Number of ticks from beginning of simulation (restored from checkpoints and never reset) (Tick)
simFreq                                  1000000000000                       # The number of ticks per simulated second ((Tick/Second))
hostSeconds                                    315.70                       # Real time elapsed on the host (Second)
hostTickRate                               4865806861                       # The number of ticks simulated per host second (ticks/s) ((Tick/Second))
hostMemory                                    8571064                       # Number of bytes of host memory used (Byte)
simInsts                                    498843476                       # Number of instructions simulated (Count)
simOps                                      498843476                       # Number of ops (including micro ops) simulated (Count)
hostInstRate                                  1580122                       # Simulator instruction rate (inst/s) ((Count/Second))
hostOpRate                                    1580122                       # Simulator op (including micro ops) rate (op/s) ((Count/Second))
system.clk_domain.clock                          1000                       # Clock period in ticks (Tick)
system.clk_domain.voltage_domain.voltage            1                       # Voltage in Volts (Volt)
system.cpu.numCycles                       1536131821                       # Number of cpu cycles simulated (Cycle)
system.cpu.numWorkItemsStarted                      0                       # Number of work items this cpu started (Count)
system.cpu.numWorkItemsCompleted                    0                       # Number of work items this cpu completed (Count)
system.cpu.dcache.demandHits::cpu.data      232466107                       # number of demand (read+write) hits (Count)
system.cpu.dcache.demandHits::total         232466107                       # number of demand (read+write) hits (Count)
system.cpu.dcache.overallHits::cpu.data     232466107                       # number of overall hits (Count)
system.cpu.dcache.overallHits::total        232466107                       # number of overall hits (Count)
system.cpu.dcache.demandMisses::cpu.data       283779                       # number of demand (read+write) misses (Count)
system.cpu.dcache.demandMisses::total          283779                       # number of demand (read+write) misses (Count)
system.cpu.dcache.overallMisses::cpu.data       283779                       # number of overall misses (Count)
system.cpu.dcache.overallMisses::total         283779                       # number of overall misses (Count)
system.cpu.dcache.demandMissLatency::cpu.data  27362423000                       # number of demand (read+write) miss ticks (Tick)
system.cpu.dcache.demandMissLatency::total  27362423000                       # number of demand (read+write) miss ticks (Tick)
system.cpu.dcache.overallMissLatency::cpu.data  27362423000                       # number of overall miss ticks (Tick)
system.cpu.dcache.overallMissLatency::total  27362423000                       # number of overall miss ticks (Tick)
system.cpu.dcache.demandAccesses::cpu.data    232749886                       # number of demand (read+write) accesses (Count)
system.cpu.dcache.demandAccesses::total     232749886                       # number of demand (read+write) accesses (Count)
system.cpu.dcache.overallAccesses::cpu.data    232749886                       # number of overall (read+write) accesses (Count)
system.cpu.dcache.overallAccesses::total    232749886                       # number of overall (read+write) accesses (Count)
system.cpu.dcache.demandMissRate::cpu.data     0.001219                       # miss rate for demand accesses (Ratio)
system.cpu.dcache.demandMissRate::total      0.001219                       # miss rate for demand accesses (Ratio)
system.cpu.dcache.overallMissRate::cpu.data     0.001219                       # miss rate for overall accesses (Ratio)
system.cpu.dcache.overallMissRate::total     0.001219                       # miss rate for overall accesses (Ratio)
system.cpu.dcache.demandAvgMissLatency::cpu.data 96421.592154                       # average overall miss latency ((Cycle/Count))
system.cpu.dcache.demandAvgMissLatency::total 96421.592154                       # average overall miss latency ((Cycle/Count))
system.cpu.dcache.overallAvgMissLatency::cpu.data 96421.592154                       # average overall miss latency ((Cycle/Count))
system.cpu.dcache.overallAvgMissLatency::total 96421.592154                       # average overall miss latency ((Cycle/Count))
system.cpu.dcache.blockedCycles::no_mshrs            0                       # number of cycles access was blocked (Cycle)
system.cpu.dcache.blockedCycles::no_targets            0                       # number of cycles access was blocked (Cycle)
system.cpu.dcache.blockedCauses::no_mshrs            0                       # number of times access was blocked (Count)
system.cpu.dcache.blockedCauses::no_targets            0                       # number of times access was blocked (Count)
system.cpu.dcache.avgBlocked::no_mshrs            nan                       # average number of cycles each access was blocked ((Cycle/Count))
system.cpu.dcache.avgBlocked::no_targets          nan                       # average number of cycles each access was blocked ((Cycle/Count))
system.cpu.dcache.writebacks::writebacks       168113                       # number of writebacks (Count)
system.cpu.dcache.writebacks::total            168113                       # number of writebacks (Count)
system.cpu.dcache.demandMshrMisses::cpu.data       283779                       # number of demand (read+write) MSHR misses (Count)
system.cpu.dcache.demandMshrMisses::total       283779                       # number of demand (read+write) MSHR misses (Count)
system.cpu.dcache.overallMshrMisses::cpu.data       283779                       # number of overall MSHR misses (Count)
system.cpu.dcache.overallMshrMisses::total       283779                       # number of overall MSHR misses (Count)
system.cpu.dcache.demandMshrMissLatency::cpu.data  26794865000                       # number of demand (read+write) MSHR miss ticks (Tick)
system.cpu.dcache.demandMshrMissLatency::total  26794865000                       # number of demand (read+write) MSHR miss ticks (Tick)
system.cpu.dcache.overallMshrMissLatency::cpu.data  26794865000                       # number of overall MSHR miss ticks (Tick)
system.cpu.dcache.overallMshrMissLatency::total  26794865000                       # number of overall MSHR miss ticks (Tick)
system.cpu.dcache.demandMshrMissRate::cpu.data     0.001219                       # mshr miss ratio for demand accesses (Ratio)
system.cpu.dcache.demandMshrMissRate::total     0.001219                       # mshr miss ratio for demand accesses (Ratio)
system.cpu.dcache.overallMshrMissRate::cpu.data     0.001219                       # mshr miss ratio for overall accesses (Ratio)
system.cpu.dcache.overallMshrMissRate::total     0.001219                       # mshr miss ratio for overall accesses (Ratio)
system.cpu.dcache.demandAvgMshrMissLatency::cpu.data 94421.592154                       # average overall mshr miss latency ((Cycle/Count))
system.cpu.dcache.demandAvgMshrMissLatency::total 94421.592154                       # average overall mshr miss latency ((Cycle/Count))
system.cpu.dcache.overallAvgMshrMissLatency::cpu.data 94421.592154                       # average overall mshr miss latency ((Cycle/Count))
system.cpu.dcache.overallAvgMshrMissLatency::total 94421.592154                       # average overall mshr miss latency ((Cycle/Count))
system.cpu.dcache.replacements                 283267                       # number of replacements (Count)
system.cpu.dcache.ReadReq.hits::cpu.data    165118228                       # number of ReadReq hits (Count)
system.cpu.dcache.ReadReq.hits::total       165118228                       # number of ReadReq hits (Count)
system.cpu.dcache.ReadReq.misses::cpu.data       156460                       # number of ReadReq misses (Count)
system.cpu.dcache.ReadReq.misses::total        156460                       # number of ReadReq misses (Count)
system.cpu.dcache.ReadReq.missLatency::cpu.data  14385532000                       # number of ReadReq miss ticks (Tick)
system.cpu.dcache.ReadReq.missLatency::total  14385532000                       # number of ReadReq miss ticks (Tick)
system.cpu.dcache.ReadReq.accesses::cpu.data    165274688                       # number of ReadReq accesses(hits+misses) (Count)
system.cpu.dcache.ReadReq.accesses::total    165274688                       # number of ReadReq accesses(hits+misses) (Count)
system.cpu.dcache.ReadReq.missRate::cpu.data     0.000947                       # miss rate for ReadReq accesses (Ratio)
system.cpu.dcache.ReadReq.missRate::total     0.000947                       # miss rate for ReadReq accesses (Ratio)
system.cpu.dcache.ReadReq.avgMissLatency::cpu.data 91943.832289                       # average ReadReq miss latency ((Tick/Count))
system.cpu.dcache.ReadReq.avgMissLatency::total 91943.832289                       # average ReadReq miss latency ((Tick/Count))
system.cpu.dcache.ReadReq.mshrMisses::cpu.data       156460                       # number of ReadReq MSHR misses (Count)
system.cpu.dcache.ReadReq.mshrMisses::total       156460                       # number of ReadReq MSHR misses (Count)
system.cpu.dcache.ReadReq.mshrMissLatency::cpu.data  14072612000                       # number of ReadReq MSHR miss ticks (Tick)
system.cpu.dcache.ReadReq.mshrMissLatency::total  14072612000                       # number of ReadReq MSHR miss ticks (Tick)
system.cpu.dcache.ReadReq.mshrMissRate::cpu.data     0.000947                       # mshr miss rate for ReadReq accesses (Ratio)
system.cpu.dcache.ReadReq.mshrMissRate::total     0.000947                       # mshr miss rate for ReadReq accesses (Ratio)
system.cpu.dcache.ReadReq.avgMshrMissLatency::cpu.data 89943.832289                       # average ReadReq mshr miss latency ((Tick/Count))
system.cpu.dcache.ReadReq.avgMshrMissLatency::total 89943.832289                       # average ReadReq mshr miss latency ((Tick/Count))
system.cpu.dcache.WriteReq.hits::cpu.data     67347879                       # number of WriteReq hits (Count)
system.cpu.dcache.WriteReq.hits::total       67347879                       # number of WriteReq hits (Count)
system.cpu.dcache.WriteReq.misses::cpu.data       127319                       # number of WriteReq misses (Count)
system.cpu.dcache.WriteReq.misses::total       127319                       # number of WriteReq misses (Count)
system.cpu.dcache.WriteReq.missLatency::cpu.data  12976891000                       # number of WriteReq miss ticks (Tick)
system.cpu.dcache.WriteReq.missLatency::total  12976891000                       # number of WriteReq miss ticks (Tick)
system.cpu.dcache.WriteReq.accesses::cpu.data     67475198                       # number of WriteReq accesses(hits+misses) (Count)
system.cpu.dcache.WriteReq.accesses::total     67475198                       # number of WriteReq accesses(hits+misses) (Count)
system.cpu.dcache.WriteReq.missRate::cpu.data     0.001887                       # miss rate for WriteReq accesses (Ratio)
system.cpu.dcache.WriteReq.missRate::total     0.001887                       # miss rate for WriteReq accesses (Ratio)
system.cpu.dcache.WriteReq.avgMissLatency::cpu.data 101924.229691                       # average WriteReq miss latency ((Tick/Count))
system.cpu.dcache.WriteReq.avgMissLatency::total 101924.229691                       # average WriteReq miss latency ((Tick/Count))
system.cpu.dcache.WriteReq.mshrMisses::cpu.data       127319                       # number of WriteReq MSHR misses (Count)
system.cpu.dcache.WriteReq.mshrMisses::total       127319                       # number of WriteReq MSHR misses (Count)
system.cpu.dcache.WriteReq.mshrMissLatency::cpu.data  12722253000                       # number of WriteReq MSHR miss ticks (Tick)
system.cpu.dcache.WriteReq.mshrMissLatency::total  12722253000                       # number of WriteReq MSHR miss ticks (Tick)
system.cpu.dcache.WriteReq.mshrMissRate::cpu.data     0.001887                       # mshr miss rate for WriteReq accesses (Ratio)
system.cpu.dcache.WriteReq.mshrMissRate::total     0.001887                       # mshr miss rate for WriteReq accesses (Ratio)
system.cpu.dcache.WriteReq.avgMshrMissLatency::cpu.data 99924.229691                       # average WriteReq mshr miss latency ((Tick/Count))
system.cpu.dcache.WriteReq.avgMshrMissLatency::total 99924.229691                       # average WriteReq mshr miss latency ((Tick/Count))
system.cpu.dcache.power_state.pwrStateResidencyTicks::UNDEFINED 1536131821000                       # Cumulative time (in ticks) in various power states (Tick)
system.cpu.dcache.tags.tagsInUse           511.813958                       # Average ticks per tags in use ((Tick/Count))
system.cpu.dcache.tags.totalRefs            232749886                       # Total number of references to valid blocks. (Count)
system.cpu.dcache.tags.sampledRefs             283779                       # Sample count of references to valid blocks. (Count)
system.cpu.dcache.tags.avgRefs             820.180091                       # Average number of references to valid blocks. ((Count/Count))
system.cpu.dcache.tags.warmupTick              306000                       # The tick when the warmup percentage was hit. (Tick)
system.cpu.dcache.tags.occupancies::cpu.data   511.813958                       # Average occupied blocks per tick, per requestor ((Count/Tick))
system.cpu.dcache.tags.avgOccs::cpu.data     0.999637                       # Average percentage of cache occupancy ((Ratio/Tick))
system.cpu.dcache.tags.avgOccs::total        0.999637                       # Average percentage of cache occupancy ((Ratio/Tick))
system.cpu.dcache.tags.occupanciesTaskId::1024          512                       # Occupied blocks per task id (Count)
system.cpu.dcache.tags.ageTaskId_1024::0           21                       # Occupied blocks per task id, per block age (Count)
system.cpu.dcache.tags.ageTaskId_1024::1           20                       # Occupied blocks per task id, per block age (Count)
system.cpu.dcache.tags.ageTaskId_1024::2           53                       # Occupied blocks per task id, per block age (Count)
system.cpu.dcache.tags.ageTaskId_1024::3          418                       # Occupied blocks per task id, per block age (Count)
system.cpu.dcache.tags.ratioOccsTaskId::1024            1                       # Ratio of occupied blocks and all blocks, per task id (Ratio)
system.cpu.dcache.tags.tagAccesses          233033665                       # Number of tag accesses (Count)
system.cpu.dcache.tags.dataAccesses         233033665                       # Number of data accesses (Count)
system.cpu.dcache.tags.power_state.pwrStateResidencyTicks::UNDEFINED 1536131821000                       # Cumulative time (in ticks) in various power states (Tick)
system.cpu.exec_context.thread_0.numInsts    498843476                       # Number of instructions committed (Count)
system.cpu.exec_context.thread_0.numOps     498843476                       # Number of ops (including micro ops) committed (Count)
system.cpu.exec_context.thread_0.numIntAluAccesses    497094686                       # Number of integer alu accesses (Count)
system.cpu.exec_context.thread_0.numFpAluAccesses           18                       # Number of float alu accesses (Count)
system.cpu.exec_context.thread_0.numVecAluAccesses            0                       # Number of vector alu accesses (Count)
system.cpu.exec_context.thread_0.numCallsReturns      2632613                       # Number of times a function call or return occured (Count)
system.cpu.exec_context.thread_0.numCondCtrlInsts     33348129                       # Number of instructions that are conditional controls (Count)
system.cpu.exec_context.thread_0.numIntInsts    497094686                       # Number of integer instructions (Count)
system.cpu.exec_context.thread_0.numFpInsts           18                       # Number of float instructions (Count)
system.cpu.exec_context.thread_0.numVecInsts            0                       # Number of vector instructions (Count)
system.cpu.exec_context.thread_0.numIntRegReads    780891164                       # Number of times the integer registers were read (Count)
system.cpu.exec_context.thread_0.numIntRegWrites    434506310                       # Number of times the integer registers were written (Count)
system.cpu.exec_context.thread_0.numFpRegReads           18                       # Number of times the floating registers were read (Count)
system.cpu.exec_context.thread_0.numFpRegWrites            0                       # Number of times the floating registers were written (Count)
system.cpu.exec_context.thread_0.numVecRegReads            0                       # Number of times the vector registers were read (Count)
system.cpu.exec_context.thread_0.numVecRegWrites            0                       # Number of times the vector registers were written (Count)
system.cpu.exec_context.thread_0.numVecPredRegReads            0                       # Number of times the predicate registers were read (Count)
system.cpu.exec_context.thread_0.numVecPredRegWrites            0                       # Number of times the predicate registers were written (Count)
system.cpu.exec_context.thread_0.numMiscRegReads            0                       # Number of times the Misc registers were read (Count)
system.cpu.exec_context.thread_0.numMiscRegWrites            0                       # Number of times the Misc registers were written (Count)
system.cpu.exec_context.thread_0.numMemRefs    232744781                       # Number of memory refs (Count)
system.cpu.exec_context.thread_0.numLoadInsts    165274687                       # Number of load instructions (Count)
system.cpu.exec_context.thread_0.numStoreInsts     67470094                       # Number of store instructions (Count)
system.cpu.exec_context.thread_0.numIdleCycles     0.001000                       # Number of idle cycles (Cycle)
system.cpu.exec_context.thread_0.numBusyCycles 1536131820.999000                       # Number of busy cycles (Cycle)
system.cpu.exec_context.thread_0.notIdleFraction     1.000000                       # Percentage of non-idle cycles (Ratio)
system.cpu.exec_context.thread_0.idleFraction     0.000000                       # Percentage of idle cycles (Ratio)
system.cpu.exec_context.thread_0.numBranches     36064356                       # Number of branches fetched (Count)
system.cpu.exec_context.thread_0.statExecutedInstType::No_OpClass            0      0.00%      0.00% # Class of executed instruction. (Count)
system.cpu.exec_context.thread_0.statExecutedInstType::IntAlu    266099917     53.34%     53.34% # Class of executed instruction. (Count)
system.cpu.exec_context.thread_0.statExecutedInstType::IntMult            0      0.00%     53.34% # Class of executed instruction. (Count)
system.cpu.exec_context.thread_0.statExecutedInstType::IntDiv            0      0.00%     53.34% # Class of executed instruction. (Count)
system.cpu.exec_context.thread_0.statExecutedInstType::FloatAdd            0      0.00%     53.34% # Class of executed instruction. (Count)
system.cpu.exec_context.thread_0.statExecutedInstType::FloatCmp            0      0.00%     53.34% # Class of executed instruction. (Count)
system.cpu.exec_context.thread_0.statExecutedInstType::FloatCvt            0      0.00%     53.34% # Class of executed instruction. (Count)
system.cpu.exec_context.thread_0.statExecutedInstType::FloatMult            0      0.00%     53.34% # Class of executed instruction. (Count)
system.cpu.exec_context.thread_0.statExecutedInstType::FloatMultAcc            0      0.00%     53.34% # Class of executed instruction. (Count)
system.cpu.exec_context.thread_0.statExecutedInstType::FloatDiv            0      0.00%     53.34% # Class of executed instruction. (Count)
system.cpu.exec_context.thread_0.statExecutedInstType::FloatMisc            0      0.00%     53.34% # Class of executed instruction. (Count)
system.cpu.exec_context.thread_0.statExecutedInstType::FloatSqrt            0      0.00%     53.34% # Class of executed instruction. (Count)
system.cpu.exec_context.thread_0.statExecutedInstType::SimdAdd            0      0.00%     53.34% # Class of executed instruction. (Count)
system.cpu.exec_context.thread_0.statExecutedInstType::SimdAddAcc            0      0.00%     53.34% # Class of executed instruction. (Count)
system.cpu.exec_context.thread_0.statExecutedInstType::SimdAlu            0      0.00%     53.34% # Class of executed instruction. (Count)
system.cpu.exec_context.thread_0.statExecutedInstType::SimdCmp            0      0.00%     53.34% # Class of executed instruction. (Count)
system.cpu.exec_context.thread_0.statExecutedInstType::SimdCvt            0      0.00%     53.34% # Class of executed instruction. (Count)
system.cpu.exec_context.thread_0.statExecutedInstType::SimdMisc            0      0.00%     53.34% # Class of executed instruction. (Count)
system.cpu.exec_context.thread_0.statExecutedInstType::SimdMult            0      0.00%     53.34% # Class of executed instruction. (Count)
system.cpu.exec_context.thread_0.statExecutedInstType::SimdMultAcc            0      0.00%     53.34% # Class of executed instruction. (Count)
system.cpu.exec_context.thread_0.statExecutedInstType::SimdShift            0      0.00%     53.34% # Class of executed instruction. (Count)
system.cpu.exec_context.thread_0.statExecutedInstType::SimdShiftAcc            0      0.00%     53.34% # Class of executed instruction. (Count)
system.cpu.exec_context.thread_0.statExecutedInstType::SimdDiv            0      0.00%     53.34% # Class of executed instruction. (Count)
system.cpu.exec_context.thread_0.statExecutedInstType::SimdSqrt            0      0.00%     53.34% # Class of executed instruction. (Count)
system.cpu.exec_context.thread_0.statExecutedInstType::SimdFloatAdd            0      0.00%     53.34% # Class of executed instruction. (Count)
system.cpu.exec_context.thread_0.statExecutedInstType::SimdFloatAlu            0      0.00%     53.34% # Class of executed instruction. (Count)
system.cpu.exec_context.thread_0.statExecutedInstType::SimdFloatCmp            0      0.00%     53.34% # Class of executed instruction. (Count)
system.cpu.exec_context.thread_0.statExecutedInstType::SimdFloatCvt            0      0.00%     53.34% # Class of executed instruction. (Count)
system.cpu.exec_context.thread_0.statExecutedInstType::SimdFloatDiv            0      0.00%     53.34% # Class of executed instruction. (Count)
system.cpu.exec_context.thread_0.statExecutedInstType::SimdFloatMisc            0      0.00%     53.34% # Class of executed instruction. (Count)
system.cpu.exec_context.thread_0.statExecutedInstType::SimdFloatMult            0      0.00%     53.34% # Class of executed instruction. (Count)
system.cpu.exec_context.thread_0.statExecutedInstType::SimdFloatMultAcc            0      0.00%     53.34% # Class of executed instruction. (Count)
system.cpu.exec_context.thread_0.statExecutedInstType::SimdFloatSqrt            0      0.00%     53.34% # Class of executed instruction. (Count)
system.cpu.exec_context.thread_0.statExecutedInstType::SimdReduceAdd            0      0.00%     53.34% # Class of executed instruction. (Count)
system.cpu.exec_context.thread_0.statExecutedInstType::SimdReduceAlu            0      0.00%     53.34% # Class of executed instruction. (Count)
system.cpu.exec_context.thread_0.statExecutedInstType::SimdReduceCmp            0      0.00%     53.34% # Class of executed instruction. (Count)
system.cpu.exec_context.thread_0.statExecutedInstType::SimdFloatReduceAdd            0      0.00%     53.34% # Class of executed instruction. (Count)
system.cpu.exec_context.thread_0.statExecutedInstType::SimdFloatReduceCmp            0      0.00%     53.34% # Class of executed instruction. (Count)
system.cpu.exec_context.thread_0.statExecutedInstType::SimdAes            0      0.00%     53.34% # Class of executed instruction. (Count)
system.cpu.exec_context.thread_0.statExecutedInstType::SimdAesMix            0      0.00%     53.34% # Class of executed instruction. (Count)
system.cpu.exec_context.thread_0.statExecutedInstType::SimdSha1Hash            0      0.00%     53.34% # Class of executed instruction. (Count)
system.cpu.exec_context.thread_0.statExecutedInstType::SimdSha1Hash2            0      0.00%     53.34% # Class of executed instruction. (Count)
system.cpu.exec_context.thread_0.statExecutedInstType::SimdSha256Hash            0      0.00%     53.34% # Class of executed instruction. (Count)
system.cpu.exec_context.thread_0.statExecutedInstType::SimdSha256Hash2            0      0.00%     53.34% # Class of executed instruction. (Count)
system.cpu.exec_context.thread_0.statExecutedInstType::SimdShaSigma2            0      0.00%     53.34% # Class of executed instruction. (Count)
system.cpu.exec_context.thread_0.statExecutedInstType::SimdShaSigma3            0      0.00%     53.34% # Class of executed instruction. (Count)
system.cpu.exec_context.thread_0.statExecutedInstType::SimdPredAlu            0      0.00%     53.34% # Class of executed instruction. (Count)
system.cpu.exec_context.thread_0.statExecutedInstType::MemRead    165274687     33.13%     86.47% # Class of executed instruction. (Count)
system.cpu.exec_context.thread_0.statExecutedInstType::MemWrite     67470076     13.53%    100.00% # Class of executed instruction. (Count)
system.cpu.exec_context.thread_0.statExecutedInstType::FloatMemRead            0      0.00%    100.00% # Class of executed instruction. (Count)
system.cpu.exec_context.thread_0.statExecutedInstType::FloatMemWrite           18      0.00%    100.00% # Class of executed instruction. (Count)
system.cpu.exec_context.thread_0.statExecutedInstType::IprAccess            0      0.00%    100.00% # Class of executed instruction. (Count)
system.cpu.exec_context.thread_0.statExecutedInstType::InstPrefetch            0      0.00%    100.00% # Class of executed instruction. (Count)
system.cpu.exec_context.thread_0.statExecutedInstType::total    498844698                       # Class of executed instruction. (Count)
system.cpu.icache.demandHits::cpu.inst      496924596                       # number of demand (read+write) hits (Count)
system.cpu.icache.demandHits::total         496924596                       # number of demand (read+write) hits (Count)
system.cpu.icache.overallHits::cpu.inst     496924596                       # number of overall hits (Count)
system.cpu.icache.overallHits::total        496924596                       # number of overall hits (Count)
system.cpu.icache.demandMisses::cpu.inst      1920102                       # number of demand (read+write) misses (Count)
system.cpu.icache.demandMisses::total         1920102                       # number of demand (read+write) misses (Count)
system.cpu.icache.overallMisses::cpu.inst      1920102                       # number of overall misses (Count)
system.cpu.icache.overallMisses::total        1920102                       # number of overall misses (Count)
system.cpu.icache.demandMissLatency::cpu.inst  50009475000                       # number of demand (read+write) miss ticks (Tick)
system.cpu.icache.demandMissLatency::total  50009475000                       # number of demand (read+write) miss ticks (Tick)
system.cpu.icache.overallMissLatency::cpu.inst  50009475000                       # number of overall miss ticks (Tick)
system.cpu.icache.overallMissLatency::total  50009475000                       # number of overall miss ticks (Tick)
system.cpu.icache.demandAccesses::cpu.inst    498844698                       # number of demand (read+write) accesses (Count)
system.cpu.icache.demandAccesses::total     498844698                       # number of demand (read+write) accesses (Count)
system.cpu.icache.overallAccesses::cpu.inst    498844698                       # number of overall (read+write) accesses (Count)
system.cpu.icache.overallAccesses::total    498844698                       # number of overall (read+write) accesses (Count)
system.cpu.icache.demandMissRate::cpu.inst     0.003849                       # miss rate for demand accesses (Ratio)
system.cpu.icache.demandMissRate::total      0.003849                       # miss rate for demand accesses (Ratio)
system.cpu.icache.overallMissRate::cpu.inst     0.003849                       # miss rate for overall accesses (Ratio)
system.cpu.icache.overallMissRate::total     0.003849                       # miss rate for overall accesses (Ratio)
system.cpu.icache.demandAvgMissLatency::cpu.inst 26045.217910                       # average overall miss latency ((Cycle/Count))
system.cpu.icache.demandAvgMissLatency::total 26045.217910                       # average overall miss latency ((Cycle/Count))
system.cpu.icache.overallAvgMissLatency::cpu.inst 26045.217910                       # average overall miss latency ((Cycle/Count))
system.cpu.icache.overallAvgMissLatency::total 26045.217910                       # average overall miss latency ((Cycle/Count))
system.cpu.icache.blockedCycles::no_mshrs            0                       # number of cycles access was blocked (Cycle)
system.cpu.icache.blockedCycles::no_targets            0                       # number of cycles access was blocked (Cycle)
system.cpu.icache.blockedCauses::no_mshrs            0                       # number of times access was blocked (Count)
system.cpu.icache.blockedCauses::no_targets            0                       # number of times access was blocked (Count)
system.cpu.icache.avgBlocked::no_mshrs            nan                       # average number of cycles each access was blocked ((Cycle/Count))
system.cpu.icache.avgBlocked::no_targets          nan                       # average number of cycles each access was blocked ((Cycle/Count))
system.cpu.icache.demandMshrMisses::cpu.inst      1920102                       # number of demand (read+write) MSHR misses (Count)
system.cpu.icache.demandMshrMisses::total      1920102                       # number of demand (read+write) MSHR misses (Count)
system.cpu.icache.overallMshrMisses::cpu.inst      1920102                       # number of overall MSHR misses (Count)
system.cpu.icache.overallMshrMisses::total      1920102                       # number of overall MSHR misses (Count)
system.cpu.icache.demandMshrMissLatency::cpu.inst  46169271000                       # number of demand (read+write) MSHR miss ticks (Tick)
system.cpu.icache.demandMshrMissLatency::total  46169271000                       # number of demand (read+write) MSHR miss ticks (Tick)
system.cpu.icache.overallMshrMissLatency::cpu.inst  46169271000                       # number of overall MSHR miss ticks (Tick)
system.cpu.icache.overallMshrMissLatency::total  46169271000                       # number of overall MSHR miss ticks (Tick)
system.cpu.icache.demandMshrMissRate::cpu.inst     0.003849                       # mshr miss ratio for demand accesses (Ratio)
system.cpu.icache.demandMshrMissRate::total     0.003849                       # mshr miss ratio for demand accesses (Ratio)
system.cpu.icache.overallMshrMissRate::cpu.inst     0.003849                       # mshr miss ratio for overall accesses (Ratio)
system.cpu.icache.overallMshrMissRate::total     0.003849                       # mshr miss ratio for overall accesses (Ratio)
system.cpu.icache.demandAvgMshrMissLatency::cpu.inst 24045.217910                       # average overall mshr miss latency ((Cycle/Count))
system.cpu.icache.demandAvgMshrMissLatency::total 24045.217910                       # average overall mshr miss latency ((Cycle/Count))
system.cpu.icache.overallAvgMshrMissLatency::cpu.inst 24045.217910                       # average overall mshr miss latency ((Cycle/Count))
system.cpu.icache.overallAvgMshrMissLatency::total 24045.217910                       # average overall mshr miss latency ((Cycle/Count))
system.cpu.icache.replacements                1919851                       # number of replacements (Count)
system.cpu.icache.ReadReq.hits::cpu.inst    496924596                       # number of ReadReq hits (Count)
system.cpu.icache.ReadReq.hits::total       496924596                       # number of ReadReq hits (Count)
system.cpu.icache.ReadReq.misses::cpu.inst      1920102                       # number of ReadReq misses (Count)
system.cpu.icache.ReadReq.misses::total       1920102                       # number of ReadReq misses (Count)
system.cpu.icache.ReadReq.missLatency::cpu.inst  50009475000                       # number of ReadReq miss ticks (Tick)
system.cpu.icache.ReadReq.missLatency::total  50009475000                       # number of ReadReq miss ticks (Tick)
system.cpu.icache.ReadReq.accesses::cpu.inst    498844698                       # number of ReadReq accesses(hits+misses) (Count)
system.cpu.icache.ReadReq.accesses::total    498844698                       # number of ReadReq accesses(hits+misses) (Count)
system.cpu.icache.ReadReq.missRate::cpu.inst     0.003849                       # miss rate for ReadReq accesses (Ratio)
system.cpu.icache.ReadReq.missRate::total     0.003849                       # miss rate for ReadReq accesses (Ratio)
system.cpu.icache.ReadReq.avgMissLatency::cpu.inst 26045.217910                       # average ReadReq miss latency ((Tick/Count))
system.cpu.icache.ReadReq.avgMissLatency::total 26045.217910                       # average ReadReq miss latency ((Tick/Count))
system.cpu.icache.ReadReq.mshrMisses::cpu.inst      1920102                       # number of ReadReq MSHR misses (Count)
system.cpu.icache.ReadReq.mshrMisses::total      1920102                       # number of ReadReq MSHR misses (Count)
system.cpu.icache.ReadReq.mshrMissLatency::cpu.inst  46169271000                       # number of ReadReq MSHR miss ticks (Tick)
system.cpu.icache.ReadReq.mshrMissLatency::total  46169271000                       # number of ReadReq MSHR miss ticks (Tick)
system.cpu.icache.ReadReq.mshrMissRate::cpu.inst     0.003849                       # mshr miss rate for ReadReq accesses (Ratio)
system.cpu.icache.ReadReq.mshrMissRate::total     0.003849                       # mshr miss rate for ReadReq accesses (Ratio)
system.cpu.icache.ReadReq.avgMshrMissLatency::cpu.inst 24045.217910                       # average ReadReq mshr miss latency ((Tick/Count))
system.cpu.icache.ReadReq.avgMshrMissLatency::total 24045.217910                       # average ReadReq mshr miss latency ((Tick/Count))
system.cpu.icache.power_state.pwrStateResidencyTicks::UNDEFINED 1536131821000                       # Cumulative time (in ticks) in various power states (Tick)
system.cpu.icache.tags.tagsInUse           240.244948                       # Average ticks per tags in use ((Tick/Count))
system.cpu.icache.tags.totalRefs            498844698                       # Total number of references to valid blocks. (Count)
system.cpu.icache.tags.sampledRefs            1920102                       # Sample count of references to valid blocks. (Count)
system.cpu.icache.tags.avgRefs             259.801145                       # Average number of references to valid blocks. ((Count/Count))
system.cpu.icache.tags.warmupTick              149000                       # The tick when the warmup percentage was hit. (Tick)
system.cpu.icache.tags.occupancies::cpu.inst   240.244948                       # Average occupied blocks per tick, per requestor ((Count/Tick))
system.cpu.icache.tags.avgOccs::cpu.inst     0.938457                       # Average percentage of cache occupancy ((Ratio/Tick))
system.cpu.icache.tags.avgOccs::total        0.938457                       # Average percentage of cache occupancy ((Ratio/Tick))
system.cpu.icache.tags.occupanciesTaskId::1024          251                       # Occupied blocks per task id (Count)
system.cpu.icache.tags.ageTaskId_1024::0           46                       # Occupied blocks per task id, per block age (Count)
system.cpu.icache.tags.ageTaskId_1024::1           77                       # Occupied blocks per task id, per block age (Count)
system.cpu.icache.tags.ageTaskId_1024::3            1                       # Occupied blocks per task id, per block age (Count)
system.cpu.icache.tags.ageTaskId_1024::4          127                       # Occupied blocks per task id, per block age (Count)
system.cpu.icache.tags.ratioOccsTaskId::1024     0.980469                       # Ratio of occupied blocks and all blocks, per task id (Ratio)
system.cpu.icache.tags.tagAccesses          500764800                       # Number of tag accesses (Count)
system.cpu.icache.tags.dataAccesses         500764800                       # Number of data accesses (Count)
system.cpu.icache.tags.power_state.pwrStateResidencyTicks::UNDEFINED 1536131821000                       # Cumulative time (in ticks) in various power states (Tick)
system.cpu.power_state.pwrStateResidencyTicks::ON 1536131821000                       # Cumulative time (in ticks) in various power states (Tick)
system.cpu.thread_0.numInsts                        0                       # Number of Instructions committed (Count)
system.cpu.thread_0.numOps                          0                       # Number of Ops committed (Count)
system.cpu.thread_0.numMemRefs                      0                       # Number of Memory References (Count)
system.cpu.workload.numSyscalls                    64                       # Number of system calls (Count)
system.l2bus.transDist::ReadResp              2076562                       # Transaction distribution (Count)
system.l2bus.transDist::WritebackDirty         241995                       # Transaction distribution (Count)
system.l2bus.transDist::CleanEvict            2106360                       # Transaction distribution (Count)
system.l2bus.transDist::ReadExReq              127319                       # Transaction distribution (Count)
system.l2bus.transDist::ReadExResp             127319                       # Transaction distribution (Count)
system.l2bus.transDist::ReadSharedReq         2076562                       # Transaction distribution (Count)
system.l2bus.pktCount_system.cpu.icache.mem_side_port::system.l2cache.cpu_side_port      5760055                       # Packet count per connected requestor and responder (Count)
system.l2bus.pktCount_system.cpu.dcache.mem_side_port::system.l2cache.cpu_side_port       850825                       # Packet count per connected requestor and responder (Count)
system.l2bus.pktCount::total                  6610880                       # Packet count per connected requestor and responder (Count)
system.l2bus.pktSize_system.cpu.icache.mem_side_port::system.l2cache.cpu_side_port    122886528                       # Cumulative packet size per connected requestor and responder (Byte)
system.l2bus.pktSize_system.cpu.dcache.mem_side_port::system.l2cache.cpu_side_port     28921088                       # Cumulative packet size per connected requestor and responder (Byte)
system.l2bus.pktSize::total                 151807616                       # Cumulative packet size per connected requestor and responder (Byte)
system.l2bus.snoops                            145237                       # Total snoops (Count)
system.l2bus.snoopTraffic                     4728448                       # Total snoop traffic (Byte)
system.l2bus.snoopFanout::samples             2349118                       # Request fanout histogram (Count)
system.l2bus.snoopFanout::mean               0.000329                       # Request fanout histogram (Count)
system.l2bus.snoopFanout::stdev              0.018125                       # Request fanout histogram (Count)
system.l2bus.snoopFanout::underflows                0      0.00%      0.00% # Request fanout histogram (Count)
system.l2bus.snoopFanout::0                   2348346     99.97%     99.97% # Request fanout histogram (Count)
system.l2bus.snoopFanout::1                       772      0.03%    100.00% # Request fanout histogram (Count)
system.l2bus.snoopFanout::2                         0      0.00%    100.00% # Request fanout histogram (Count)
system.l2bus.snoopFanout::overflows                 0      0.00%    100.00% # Request fanout histogram (Count)
system.l2bus.snoopFanout::min_value                 0                       # Request fanout histogram (Count)
system.l2bus.snoopFanout::max_value                 1                       # Request fanout histogram (Count)
system.l2bus.snoopFanout::total               2349118                       # Request fanout histogram (Count)
system.l2bus.power_state.pwrStateResidencyTicks::UNDEFINED 1536131821000                       # Cumulative time (in ticks) in various power states (Tick)
system.l2bus.reqLayer0.occupancy           4743225000                       # Layer occupancy (ticks) (Tick)
system.l2bus.reqLayer0.utilization                0.0                       # Layer utilization (Ratio)
system.l2bus.respLayer0.occupancy          5760306000                       # Layer occupancy (ticks) (Tick)
system.l2bus.respLayer0.utilization               0.0                       # Layer utilization (Ratio)
system.l2bus.respLayer1.occupancy           851337000                       # Layer occupancy (ticks) (Tick)
system.l2bus.respLayer1.utilization               0.0                       # Layer utilization (Ratio)
system.l2bus.snoop_filter.totRequests         4406999                       # Total number of requests made to the snoop filter. (Count)
system.l2bus.snoop_filter.hitSingleRequests      2203118                       # Number of requests hitting in the snoop filter with a single holder of the requested data. (Count)
system.l2bus.snoop_filter.hitMultiRequests            4                       # Number of requests hitting in the snoop filter with multiple (>1) holders of the requested data. (Count)
system.l2bus.snoop_filter.totSnoops               768                       # Total number of snoops made to the snoop filter. (Count)
system.l2bus.snoop_filter.hitSingleSnoops          768                       # Number of snoops hitting in the snoop filter with a single holder of the requested data. (Count)
system.l2bus.snoop_filter.hitMultiSnoops            0                       # Number of snoops hitting in the snoop filter with multiple (>1) holders of the requested data. (Count)
system.l2cache.demandHits::cpu.inst           1919374                       # number of demand (read+write) hits (Count)
system.l2cache.demandHits::cpu.data            135845                       # number of demand (read+write) hits (Count)
system.l2cache.demandHits::total              2055219                       # number of demand (read+write) hits (Count)
system.l2cache.overallHits::cpu.inst          1919374                       # number of overall hits (Count)
system.l2cache.overallHits::cpu.data           135845                       # number of overall hits (Count)
system.l2cache.overallHits::total             2055219                       # number of overall hits (Count)
system.l2cache.demandMisses::cpu.inst             728                       # number of demand (read+write) misses (Count)
system.l2cache.demandMisses::cpu.data          147934                       # number of demand (read+write) misses (Count)
system.l2cache.demandMisses::total             148662                       # number of demand (read+write) misses (Count)
system.l2cache.overallMisses::cpu.inst            728                       # number of overall misses (Count)
system.l2cache.overallMisses::cpu.data         147934                       # number of overall misses (Count)
system.l2cache.overallMisses::total            148662                       # number of overall misses (Count)
system.l2cache.demandMissLatency::cpu.inst    101874000                       # number of demand (read+write) miss ticks (Tick)
system.l2cache.demandMissLatency::cpu.data  21915581000                       # number of demand (read+write) miss ticks (Tick)
system.l2cache.demandMissLatency::total   22017455000                       # number of demand (read+write) miss ticks (Tick)
system.l2cache.overallMissLatency::cpu.inst    101874000                       # number of overall miss ticks (Tick)
system.l2cache.overallMissLatency::cpu.data  21915581000                       # number of overall miss ticks (Tick)
system.l2cache.overallMissLatency::total  22017455000                       # number of overall miss ticks (Tick)
system.l2cache.demandAccesses::cpu.inst       1920102                       # number of demand (read+write) accesses (Count)
system.l2cache.demandAccesses::cpu.data        283779                       # number of demand (read+write) accesses (Count)
system.l2cache.demandAccesses::total          2203881                       # number of demand (read+write) accesses (Count)
system.l2cache.overallAccesses::cpu.inst      1920102                       # number of overall (read+write) accesses (Count)
system.l2cache.overallAccesses::cpu.data       283779                       # number of overall (read+write) accesses (Count)
system.l2cache.overallAccesses::total         2203881                       # number of overall (read+write) accesses (Count)
system.l2cache.demandMissRate::cpu.inst      0.000379                       # miss rate for demand accesses (Ratio)
system.l2cache.demandMissRate::cpu.data      0.521300                       # miss rate for demand accesses (Ratio)
system.l2cache.demandMissRate::total         0.067455                       # miss rate for demand accesses (Ratio)
system.l2cache.overallMissRate::cpu.inst     0.000379                       # miss rate for overall accesses (Ratio)
system.l2cache.overallMissRate::cpu.data     0.521300                       # miss rate for overall accesses (Ratio)
system.l2cache.overallMissRate::total        0.067455                       # miss rate for overall accesses (Ratio)
system.l2cache.demandAvgMissLatency::cpu.inst 139936.813187                       # average overall miss latency ((Cycle/Count))
system.l2cache.demandAvgMissLatency::cpu.data 148144.314356                       # average overall miss latency ((Cycle/Count))
system.l2cache.demandAvgMissLatency::total 148104.122102                       # average overall miss latency ((Cycle/Count))
system.l2cache.overallAvgMissLatency::cpu.inst 139936.813187                       # average overall miss latency ((Cycle/Count))
system.l2cache.overallAvgMissLatency::cpu.data 148144.314356                       # average overall miss latency ((Cycle/Count))
system.l2cache.overallAvgMissLatency::total 148104.122102                       # average overall miss latency ((Cycle/Count))
system.l2cache.blockedCycles::no_mshrs              0                       # number of cycles access was blocked (Cycle)
system.l2cache.blockedCycles::no_targets            0                       # number of cycles access was blocked (Cycle)
system.l2cache.blockedCauses::no_mshrs              0                       # number of times access was blocked (Count)
system.l2cache.blockedCauses::no_targets            0                       # number of times access was blocked (Count)
system.l2cache.avgBlocked::no_mshrs               nan                       # average number of cycles each access was blocked ((Cycle/Count))
system.l2cache.avgBlocked::no_targets             nan                       # average number of cycles each access was blocked ((Cycle/Count))
system.l2cache.writebacks::writebacks           73882                       # number of writebacks (Count)
system.l2cache.writebacks::total                73882                       # number of writebacks (Count)
system.l2cache.demandMshrMisses::cpu.inst          728                       # number of demand (read+write) MSHR misses (Count)
system.l2cache.demandMshrMisses::cpu.data       147934                       # number of demand (read+write) MSHR misses (Count)
system.l2cache.demandMshrMisses::total         148662                       # number of demand (read+write) MSHR misses (Count)
system.l2cache.overallMshrMisses::cpu.inst          728                       # number of overall MSHR misses (Count)
system.l2cache.overallMshrMisses::cpu.data       147934                       # number of overall MSHR misses (Count)
system.l2cache.overallMshrMisses::total        148662                       # number of overall MSHR misses (Count)
system.l2cache.demandMshrMissLatency::cpu.inst     87314000                       # number of demand (read+write) MSHR miss ticks (Tick)
system.l2cache.demandMshrMissLatency::cpu.data  18956901000                       # number of demand (read+write) MSHR miss ticks (Tick)
system.l2cache.demandMshrMissLatency::total  19044215000                       # number of demand (read+write) MSHR miss ticks (Tick)
system.l2cache.overallMshrMissLatency::cpu.inst     87314000                       # number of overall MSHR miss ticks (Tick)
system.l2cache.overallMshrMissLatency::cpu.data  18956901000                       # number of overall MSHR miss ticks (Tick)
system.l2cache.overallMshrMissLatency::total  19044215000                       # number of overall MSHR miss ticks (Tick)
system.l2cache.demandMshrMissRate::cpu.inst     0.000379                       # mshr miss ratio for demand accesses (Ratio)
system.l2cache.demandMshrMissRate::cpu.data     0.521300                       # mshr miss ratio for demand accesses (Ratio)
system.l2cache.demandMshrMissRate::total     0.067455                       # mshr miss ratio for demand accesses (Ratio)
system.l2cache.overallMshrMissRate::cpu.inst     0.000379                       # mshr miss ratio for overall accesses (Ratio)
system.l2cache.overallMshrMissRate::cpu.data     0.521300                       # mshr miss ratio for overall accesses (Ratio)
system.l2cache.overallMshrMissRate::total     0.067455                       # mshr miss ratio for overall accesses (Ratio)
system.l2cache.demandAvgMshrMissLatency::cpu.inst 119936.813187                       # average overall mshr miss latency ((Cycle/Count))
system.l2cache.demandAvgMshrMissLatency::cpu.data 128144.314356                       # average overall mshr miss latency ((Cycle/Count))
system.l2cache.demandAvgMshrMissLatency::total 128104.122102                       # average overall mshr miss latency ((Cycle/Count))
system.l2cache.overallAvgMshrMissLatency::cpu.inst 119936.813187                       # average overall mshr miss latency ((Cycle/Count))
system.l2cache.overallAvgMshrMissLatency::cpu.data 128144.314356                       # average overall mshr miss latency ((Cycle/Count))
system.l2cache.overallAvgMshrMissLatency::total 128104.122102                       # average overall mshr miss latency ((Cycle/Count))
system.l2cache.replacements                    144566                       # number of replacements (Count)
system.l2cache.CleanEvict.mshrMisses::writebacks          175                       # number of CleanEvict MSHR misses (Count)
system.l2cache.CleanEvict.mshrMisses::total          175                       # number of CleanEvict MSHR misses (Count)
system.l2cache.CleanEvict.mshrMissRate::writebacks          inf                       # mshr miss rate for CleanEvict accesses (Ratio)
system.l2cache.CleanEvict.mshrMissRate::total          inf                       # mshr miss rate for CleanEvict accesses (Ratio)
system.l2cache.ReadExReq.hits::cpu.data         53285                       # number of ReadExReq hits (Count)
system.l2cache.ReadExReq.hits::total            53285                       # number of ReadExReq hits (Count)
system.l2cache.ReadExReq.misses::cpu.data        74034                       # number of ReadExReq misses (Count)
system.l2cache.ReadExReq.misses::total          74034                       # number of ReadExReq misses (Count)
system.l2cache.ReadExReq.missLatency::cpu.data  10712186000                       # number of ReadExReq miss ticks (Tick)
system.l2cache.ReadExReq.missLatency::total  10712186000                       # number of ReadExReq miss ticks (Tick)
system.l2cache.ReadExReq.accesses::cpu.data       127319                       # number of ReadExReq accesses(hits+misses) (Count)
system.l2cache.ReadExReq.accesses::total       127319                       # number of ReadExReq accesses(hits+misses) (Count)
system.l2cache.ReadExReq.missRate::cpu.data     0.581484                       # miss rate for ReadExReq accesses (Ratio)
system.l2cache.ReadExReq.missRate::total     0.581484                       # miss rate for ReadExReq accesses (Ratio)
system.l2cache.ReadExReq.avgMissLatency::cpu.data 144692.789799                       # average ReadExReq miss latency ((Tick/Count))
system.l2cache.ReadExReq.avgMissLatency::total 144692.789799                       # average ReadExReq miss latency ((Tick/Count))
system.l2cache.ReadExReq.mshrMisses::cpu.data        74034                       # number of ReadExReq MSHR misses (Count)
system.l2cache.ReadExReq.mshrMisses::total        74034                       # number of ReadExReq MSHR misses (Count)
system.l2cache.ReadExReq.mshrMissLatency::cpu.data   9231506000                       # number of ReadExReq MSHR miss ticks (Tick)
system.l2cache.ReadExReq.mshrMissLatency::total   9231506000                       # number of ReadExReq MSHR miss ticks (Tick)
system.l2cache.ReadExReq.mshrMissRate::cpu.data     0.581484                       # mshr miss rate for ReadExReq accesses (Ratio)
system.l2cache.ReadExReq.mshrMissRate::total     0.581484                       # mshr miss rate for ReadExReq accesses (Ratio)
system.l2cache.ReadExReq.avgMshrMissLatency::cpu.data 124692.789799                       # average ReadExReq mshr miss latency ((Tick/Count))
system.l2cache.ReadExReq.avgMshrMissLatency::total 124692.789799                       # average ReadExReq mshr miss latency ((Tick/Count))
system.l2cache.ReadSharedReq.hits::cpu.inst      1919374                       # number of ReadSharedReq hits (Count)
system.l2cache.ReadSharedReq.hits::cpu.data        82560                       # number of ReadSharedReq hits (Count)
system.l2cache.ReadSharedReq.hits::total      2001934                       # number of ReadSharedReq hits (Count)
system.l2cache.ReadSharedReq.misses::cpu.inst          728                       # number of ReadSharedReq misses (Count)
system.l2cache.ReadSharedReq.misses::cpu.data        73900                       # number of ReadSharedReq misses (Count)
system.l2cache.ReadSharedReq.misses::total        74628                       # number of ReadSharedReq misses (Count)
system.l2cache.ReadSharedReq.missLatency::cpu.inst    101874000                       # number of ReadSharedReq miss ticks (Tick)
system.l2cache.ReadSharedReq.missLatency::cpu.data  11203395000                       # number of ReadSharedReq miss ticks (Tick)
system.l2cache.ReadSharedReq.missLatency::total  11305269000                       # number of ReadSharedReq miss ticks (Tick)
system.l2cache.ReadSharedReq.accesses::cpu.inst      1920102                       # number of ReadSharedReq accesses(hits+misses) (Count)
system.l2cache.ReadSharedReq.accesses::cpu.data       156460                       # number of ReadSharedReq accesses(hits+misses) (Count)
system.l2cache.ReadSharedReq.accesses::total      2076562                       # number of ReadSharedReq accesses(hits+misses) (Count)
system.l2cache.ReadSharedReq.missRate::cpu.inst     0.000379                       # miss rate for ReadSharedReq accesses (Ratio)
system.l2cache.ReadSharedReq.missRate::cpu.data     0.472325                       # miss rate for ReadSharedReq accesses (Ratio)
system.l2cache.ReadSharedReq.missRate::total     0.035938                       # miss rate for ReadSharedReq accesses (Ratio)
system.l2cache.ReadSharedReq.avgMissLatency::cpu.inst 139936.813187                       # average ReadSharedReq miss latency ((Tick/Count))
system.l2cache.ReadSharedReq.avgMissLatency::cpu.data 151602.097429                       # average ReadSharedReq miss latency ((Tick/Count))
system.l2cache.ReadSharedReq.avgMissLatency::total 151488.301978                       # average ReadSharedReq miss latency ((Tick/Count))
system.l2cache.ReadSharedReq.mshrMisses::cpu.inst          728                       # number of ReadSharedReq MSHR misses (Count)
system.l2cache.ReadSharedReq.mshrMisses::cpu.data        73900                       # number of ReadSharedReq MSHR misses (Count)
system.l2cache.ReadSharedReq.mshrMisses::total        74628                       # number of ReadSharedReq MSHR misses (Count)
system.l2cache.ReadSharedReq.mshrMissLatency::cpu.inst     87314000                       # number of ReadSharedReq MSHR miss ticks (Tick)
system.l2cache.ReadSharedReq.mshrMissLatency::cpu.data   9725395000                       # number of ReadSharedReq MSHR miss ticks (Tick)
system.l2cache.ReadSharedReq.mshrMissLatency::total   9812709000                       # number of ReadSharedReq MSHR miss ticks (Tick)
system.l2cache.ReadSharedReq.mshrMissRate::cpu.inst     0.000379                       # mshr miss rate for ReadSharedReq accesses (Ratio)
system.l2cache.ReadSharedReq.mshrMissRate::cpu.data     0.472325                       # mshr miss rate for ReadSharedReq accesses (Ratio)
system.l2cache.ReadSharedReq.mshrMissRate::total     0.035938                       # mshr miss rate for ReadSharedReq accesses (Ratio)
system.l2cache.ReadSharedReq.avgMshrMissLatency::cpu.inst 119936.813187                       # average ReadSharedReq mshr miss latency ((Tick/Count))
system.l2cache.ReadSharedReq.avgMshrMissLatency::cpu.data 131602.097429                       # average ReadSharedReq mshr miss latency ((Tick/Count))
system.l2cache.ReadSharedReq.avgMshrMissLatency::total 131488.301978                       # average ReadSharedReq mshr miss latency ((Tick/Count))
system.l2cache.WritebackDirty.hits::writebacks       168113                       # number of WritebackDirty hits (Count)
system.l2cache.WritebackDirty.hits::total       168113                       # number of WritebackDirty hits (Count)
system.l2cache.WritebackDirty.accesses::writebacks       168113                       # number of WritebackDirty accesses(hits+misses) (Count)
system.l2cache.WritebackDirty.accesses::total       168113                       # number of WritebackDirty accesses(hits+misses) (Count)
system.l2cache.power_state.pwrStateResidencyTicks::UNDEFINED 1536131821000                       # Cumulative time (in ticks) in various power states (Tick)
system.l2cache.tags.tagsInUse             4081.320131                       # Average ticks per tags in use ((Tick/Count))
system.l2cache.tags.totalRefs                 4406820                       # Total number of references to valid blocks. (Count)
system.l2cache.tags.sampledRefs                148662                       # Sample count of references to valid blocks. (Count)
system.l2cache.tags.avgRefs                 29.643218                       # Average number of references to valid blocks. ((Count/Count))
system.l2cache.tags.warmupTick                 128000                       # The tick when the warmup percentage was hit. (Tick)
system.l2cache.tags.occupancies::cpu.inst   157.598699                       # Average occupied blocks per tick, per requestor ((Count/Tick))
system.l2cache.tags.occupancies::cpu.data  3923.721432                       # Average occupied blocks per tick, per requestor ((Count/Tick))
system.l2cache.tags.avgOccs::cpu.inst        0.038476                       # Average percentage of cache occupancy ((Ratio/Tick))
system.l2cache.tags.avgOccs::cpu.data        0.957940                       # Average percentage of cache occupancy ((Ratio/Tick))
system.l2cache.tags.avgOccs::total           0.996416                       # Average percentage of cache occupancy ((Ratio/Tick))
system.l2cache.tags.occupanciesTaskId::1024         4096                       # Occupied blocks per task id (Count)
system.l2cache.tags.ageTaskId_1024::0              58                       # Occupied blocks per task id, per block age (Count)
system.l2cache.tags.ageTaskId_1024::1              50                       # Occupied blocks per task id, per block age (Count)
system.l2cache.tags.ageTaskId_1024::2              53                       # Occupied blocks per task id, per block age (Count)
system.l2cache.tags.ageTaskId_1024::3             523                       # Occupied blocks per task id, per block age (Count)
system.l2cache.tags.ageTaskId_1024::4            3412                       # Occupied blocks per task id, per block age (Count)
system.l2cache.tags.ratioOccsTaskId::1024            1                       # Ratio of occupied blocks and all blocks, per task id (Ratio)
system.l2cache.tags.tagAccesses              35404622                       # Number of tag accesses (Count)
system.l2cache.tags.dataAccesses             35404622                       # Number of data accesses (Count)
system.l2cache.tags.power_state.pwrStateResidencyTicks::UNDEFINED 1536131821000                       # Cumulative time (in ticks) in various power states (Tick)
system.l3bus.transDist::ReadResp                74628                       # Transaction distribution (Count)
system.l3bus.transDist::WritebackDirty         147764                       # Transaction distribution (Count)
system.l3bus.transDist::CleanEvict              79803                       # Transaction distribution (Count)
system.l3bus.transDist::ReadExReq               74034                       # Transaction distribution (Count)
system.l3bus.transDist::ReadExResp              74034                       # Transaction distribution (Count)
system.l3bus.transDist::ReadSharedReq           74628                       # Transaction distribution (Count)
system.l3bus.pktCount_system.l2cache.mem_side_port::system.l3cache.cpu_side_port       441771                       # Packet count per connected requestor and responder (Count)
system.l3bus.pktSize_system.l2cache.mem_side_port::system.l3cache.cpu_side_port     14242816                       # Cumulative packet size per connected requestor and responder (Byte)
system.l3bus.snoops                             83120                       # Total snoops (Count)
system.l3bus.snoopTraffic                     4728448                       # Total snoop traffic (Byte)
system.l3bus.snoopFanout::samples              231782                       # Request fanout histogram (Count)
system.l3bus.snoopFanout::mean               0.002895                       # Request fanout histogram (Count)
system.l3bus.snoopFanout::stdev              0.053727                       # Request fanout histogram (Count)
system.l3bus.snoopFanout::underflows                0      0.00%      0.00% # Request fanout histogram (Count)
system.l3bus.snoopFanout::0                    231111     99.71%     99.71% # Request fanout histogram (Count)
system.l3bus.snoopFanout::1                       671      0.29%    100.00% # Request fanout histogram (Count)
system.l3bus.snoopFanout::overflows                 0      0.00%    100.00% # Request fanout histogram (Count)
system.l3bus.snoopFanout::min_value                 0                       # Request fanout histogram (Count)
system.l3bus.snoopFanout::max_value                 1                       # Request fanout histogram (Count)
system.l3bus.snoopFanout::total                231782                       # Request fanout histogram (Count)
system.l3bus.power_state.pwrStateResidencyTicks::UNDEFINED 1536131821000                       # Cumulative time (in ticks) in various power states (Tick)
system.l3bus.reqLayer0.occupancy            440873000                       # Layer occupancy (ticks) (Tick)
system.l3bus.reqLayer0.utilization                0.0                       # Layer utilization (Ratio)
system.l3bus.respLayer0.occupancy           445986000                       # Layer occupancy (ticks) (Tick)
system.l3bus.respLayer0.utilization               0.0                       # Layer utilization (Ratio)
system.l3bus.snoop_filter.totRequests          293109                       # Total number of requests made to the snoop filter. (Count)
system.l3bus.snoop_filter.hitSingleRequests       144447                       # Number of requests hitting in the snoop filter with a single holder of the requested data. (Count)
system.l3bus.snoop_filter.hitMultiRequests            0                       # Number of requests hitting in the snoop filter with multiple (>1) holders of the requested data. (Count)
system.l3bus.snoop_filter.totSnoops               671                       # Total number of snoops made to the snoop filter. (Count)
system.l3bus.snoop_filter.hitSingleSnoops          671                       # Number of snoops hitting in the snoop filter with a single holder of the requested data. (Count)
system.l3bus.snoop_filter.hitMultiSnoops            0                       # Number of snoops hitting in the snoop filter with multiple (>1) holders of the requested data. (Count)
system.l3cache.demandHits::cpu.inst                 6                       # number of demand (read+write) hits (Count)
system.l3cache.demandHits::total                    6                       # number of demand (read+write) hits (Count)
system.l3cache.overallHits::cpu.inst                6                       # number of overall hits (Count)
system.l3cache.overallHits::total                   6                       # number of overall hits (Count)
system.l3cache.demandMisses::cpu.inst             722                       # number of demand (read+write) misses (Count)
system.l3cache.demandMisses::cpu.data          147934                       # number of demand (read+write) misses (Count)
system.l3cache.demandMisses::total             148656                       # number of demand (read+write) misses (Count)
system.l3cache.overallMisses::cpu.inst            722                       # number of overall misses (Count)
system.l3cache.overallMisses::cpu.data         147934                       # number of overall misses (Count)
system.l3cache.overallMisses::total            148656                       # number of overall misses (Count)
system.l3cache.demandMissLatency::cpu.inst     71172000                       # number of demand (read+write) miss ticks (Tick)
system.l3cache.demandMissLatency::cpu.data  15702353000                       # number of demand (read+write) miss ticks (Tick)
system.l3cache.demandMissLatency::total   15773525000                       # number of demand (read+write) miss ticks (Tick)
system.l3cache.overallMissLatency::cpu.inst     71172000                       # number of overall miss ticks (Tick)
system.l3cache.overallMissLatency::cpu.data  15702353000                       # number of overall miss ticks (Tick)
system.l3cache.overallMissLatency::total  15773525000                       # number of overall miss ticks (Tick)
system.l3cache.demandAccesses::cpu.inst           728                       # number of demand (read+write) accesses (Count)
system.l3cache.demandAccesses::cpu.data        147934                       # number of demand (read+write) accesses (Count)
system.l3cache.demandAccesses::total           148662                       # number of demand (read+write) accesses (Count)
system.l3cache.overallAccesses::cpu.inst          728                       # number of overall (read+write) accesses (Count)
system.l3cache.overallAccesses::cpu.data       147934                       # number of overall (read+write) accesses (Count)
system.l3cache.overallAccesses::total          148662                       # number of overall (read+write) accesses (Count)
system.l3cache.demandMissRate::cpu.inst      0.991758                       # miss rate for demand accesses (Ratio)
system.l3cache.demandMissRate::cpu.data             1                       # miss rate for demand accesses (Ratio)
system.l3cache.demandMissRate::total         0.999960                       # miss rate for demand accesses (Ratio)
system.l3cache.overallMissRate::cpu.inst     0.991758                       # miss rate for overall accesses (Ratio)
system.l3cache.overallMissRate::cpu.data            1                       # miss rate for overall accesses (Ratio)
system.l3cache.overallMissRate::total        0.999960                       # miss rate for overall accesses (Ratio)
system.l3cache.demandAvgMissLatency::cpu.inst 98576.177285                       # average overall miss latency ((Cycle/Count))
system.l3cache.demandAvgMissLatency::cpu.data 106144.314356                       # average overall miss latency ((Cycle/Count))
system.l3cache.demandAvgMissLatency::total 106107.557044                       # average overall miss latency ((Cycle/Count))
system.l3cache.overallAvgMissLatency::cpu.inst 98576.177285                       # average overall miss latency ((Cycle/Count))
system.l3cache.overallAvgMissLatency::cpu.data 106144.314356                       # average overall miss latency ((Cycle/Count))
system.l3cache.overallAvgMissLatency::total 106107.557044                       # average overall miss latency ((Cycle/Count))
system.l3cache.blockedCycles::no_mshrs              0                       # number of cycles access was blocked (Cycle)
system.l3cache.blockedCycles::no_targets            0                       # number of cycles access was blocked (Cycle)
system.l3cache.blockedCauses::no_mshrs              0                       # number of times access was blocked (Count)
system.l3cache.blockedCauses::no_targets            0                       # number of times access was blocked (Count)
system.l3cache.avgBlocked::no_mshrs               nan                       # average number of cycles each access was blocked ((Cycle/Count))
system.l3cache.avgBlocked::no_targets             nan                       # average number of cycles each access was blocked ((Cycle/Count))
system.l3cache.writebacks::writebacks           73882                       # number of writebacks (Count)
system.l3cache.writebacks::total                73882                       # number of writebacks (Count)
system.l3cache.demandMshrMisses::cpu.inst          722                       # number of demand (read+write) MSHR misses (Count)
system.l3cache.demandMshrMisses::cpu.data       147934                       # number of demand (read+write) MSHR misses (Count)
system.l3cache.demandMshrMisses::total         148656                       # number of demand (read+write) MSHR misses (Count)
system.l3cache.overallMshrMisses::cpu.inst          722                       # number of overall MSHR misses (Count)
system.l3cache.overallMshrMisses::cpu.data       147934                       # number of overall MSHR misses (Count)
system.l3cache.overallMshrMisses::total        148656                       # number of overall MSHR misses (Count)
system.l3cache.demandMshrMissLatency::cpu.inst     56732000                       # number of demand (read+write) MSHR miss ticks (Tick)
system.l3cache.demandMshrMissLatency::cpu.data  12743673000                       # number of demand (read+write) MSHR miss ticks (Tick)
system.l3cache.demandMshrMissLatency::total  12800405000                       # number of demand (read+write) MSHR miss ticks (Tick)
system.l3cache.overallMshrMissLatency::cpu.inst     56732000                       # number of overall MSHR miss ticks (Tick)
system.l3cache.overallMshrMissLatency::cpu.data  12743673000                       # number of overall MSHR miss ticks (Tick)
system.l3cache.overallMshrMissLatency::total  12800405000                       # number of overall MSHR miss ticks (Tick)
system.l3cache.demandMshrMissRate::cpu.inst     0.991758                       # mshr miss ratio for demand accesses (Ratio)
system.l3cache.demandMshrMissRate::cpu.data            1                       # mshr miss ratio for demand accesses (Ratio)
system.l3cache.demandMshrMissRate::total     0.999960                       # mshr miss ratio for demand accesses (Ratio)
system.l3cache.overallMshrMissRate::cpu.inst     0.991758                       # mshr miss ratio for overall accesses (Ratio)
system.l3cache.overallMshrMissRate::cpu.data            1                       # mshr miss ratio for overall accesses (Ratio)
system.l3cache.overallMshrMissRate::total     0.999960                       # mshr miss ratio for overall accesses (Ratio)
system.l3cache.demandAvgMshrMissLatency::cpu.inst 78576.177285                       # average overall mshr miss latency ((Cycle/Count))
system.l3cache.demandAvgMshrMissLatency::cpu.data 86144.314356                       # average overall mshr miss latency ((Cycle/Count))
system.l3cache.demandAvgMshrMissLatency::total 86107.557044                       # average overall mshr miss latency ((Cycle/Count))
system.l3cache.overallAvgMshrMissLatency::cpu.inst 78576.177285                       # average overall mshr miss latency ((Cycle/Count))
system.l3cache.overallAvgMshrMissLatency::cpu.data 86144.314356                       # average overall mshr miss latency ((Cycle/Count))
system.l3cache.overallAvgMshrMissLatency::total 86107.557044                       # average overall mshr miss latency ((Cycle/Count))
system.l3cache.replacements                     83120                       # number of replacements (Count)
system.l3cache.CleanEvict.mshrMisses::writebacks          171                       # number of CleanEvict MSHR misses (Count)
system.l3cache.CleanEvict.mshrMisses::total          171                       # number of CleanEvict MSHR misses (Count)
system.l3cache.CleanEvict.mshrMissRate::writebacks          inf                       # mshr miss rate for CleanEvict accesses (Ratio)
system.l3cache.CleanEvict.mshrMissRate::total          inf                       # mshr miss rate for CleanEvict accesses (Ratio)
system.l3cache.ReadExReq.misses::cpu.data        74034                       # number of ReadExReq misses (Count)
system.l3cache.ReadExReq.misses::total          74034                       # number of ReadExReq misses (Count)
system.l3cache.ReadExReq.missLatency::cpu.data   7602758000                       # number of ReadExReq miss ticks (Tick)
system.l3cache.ReadExReq.missLatency::total   7602758000                       # number of ReadExReq miss ticks (Tick)
system.l3cache.ReadExReq.accesses::cpu.data        74034                       # number of ReadExReq accesses(hits+misses) (Count)
system.l3cache.ReadExReq.accesses::total        74034                       # number of ReadExReq accesses(hits+misses) (Count)
system.l3cache.ReadExReq.missRate::cpu.data            1                       # miss rate for ReadExReq accesses (Ratio)
system.l3cache.ReadExReq.missRate::total            1                       # miss rate for ReadExReq accesses (Ratio)
system.l3cache.ReadExReq.avgMissLatency::cpu.data 102692.789799                       # average ReadExReq miss latency ((Tick/Count))
system.l3cache.ReadExReq.avgMissLatency::total 102692.789799                       # average ReadExReq miss latency ((Tick/Count))
system.l3cache.ReadExReq.mshrMisses::cpu.data        74034                       # number of ReadExReq MSHR misses (Count)
system.l3cache.ReadExReq.mshrMisses::total        74034                       # number of ReadExReq MSHR misses (Count)
system.l3cache.ReadExReq.mshrMissLatency::cpu.data   6122078000                       # number of ReadExReq MSHR miss ticks (Tick)
system.l3cache.ReadExReq.mshrMissLatency::total   6122078000                       # number of ReadExReq MSHR miss ticks (Tick)
system.l3cache.ReadExReq.mshrMissRate::cpu.data            1                       # mshr miss rate for ReadExReq accesses (Ratio)
system.l3cache.ReadExReq.mshrMissRate::total            1                       # mshr miss rate for ReadExReq accesses (Ratio)
system.l3cache.ReadExReq.avgMshrMissLatency::cpu.data 82692.789799                       # average ReadExReq mshr miss latency ((Tick/Count))
system.l3cache.ReadExReq.avgMshrMissLatency::total 82692.789799                       # average ReadExReq mshr miss latency ((Tick/Count))
system.l3cache.ReadSharedReq.hits::cpu.inst            6                       # number of ReadSharedReq hits (Count)
system.l3cache.ReadSharedReq.hits::total            6                       # number of ReadSharedReq hits (Count)
system.l3cache.ReadSharedReq.misses::cpu.inst          722                       # number of ReadSharedReq misses (Count)
system.l3cache.ReadSharedReq.misses::cpu.data        73900                       # number of ReadSharedReq misses (Count)
system.l3cache.ReadSharedReq.misses::total        74622                       # number of ReadSharedReq misses (Count)
system.l3cache.ReadSharedReq.missLatency::cpu.inst     71172000                       # number of ReadSharedReq miss ticks (Tick)
system.l3cache.ReadSharedReq.missLatency::cpu.data   8099595000                       # number of ReadSharedReq miss ticks (Tick)
system.l3cache.ReadSharedReq.missLatency::total   8170767000                       # number of ReadSharedReq miss ticks (Tick)
system.l3cache.ReadSharedReq.accesses::cpu.inst          728                       # number of ReadSharedReq accesses(hits+misses) (Count)
system.l3cache.ReadSharedReq.accesses::cpu.data        73900                       # number of ReadSharedReq accesses(hits+misses) (Count)
system.l3cache.ReadSharedReq.accesses::total        74628                       # number of ReadSharedReq accesses(hits+misses) (Count)
system.l3cache.ReadSharedReq.missRate::cpu.inst     0.991758                       # miss rate for ReadSharedReq accesses (Ratio)
system.l3cache.ReadSharedReq.missRate::cpu.data            1                       # miss rate for ReadSharedReq accesses (Ratio)
system.l3cache.ReadSharedReq.missRate::total     0.999920                       # miss rate for ReadSharedReq accesses (Ratio)
system.l3cache.ReadSharedReq.avgMissLatency::cpu.inst 98576.177285                       # average ReadSharedReq miss latency ((Tick/Count))
system.l3cache.ReadSharedReq.avgMissLatency::cpu.data 109602.097429                       # average ReadSharedReq miss latency ((Tick/Count))
system.l3cache.ReadSharedReq.avgMissLatency::total 109495.416901                       # average ReadSharedReq miss latency ((Tick/Count))
system.l3cache.ReadSharedReq.mshrMisses::cpu.inst          722                       # number of ReadSharedReq MSHR misses (Count)
system.l3cache.ReadSharedReq.mshrMisses::cpu.data        73900                       # number of ReadSharedReq MSHR misses (Count)
system.l3cache.ReadSharedReq.mshrMisses::total        74622                       # number of ReadSharedReq MSHR misses (Count)
system.l3cache.ReadSharedReq.mshrMissLatency::cpu.inst     56732000                       # number of ReadSharedReq MSHR miss ticks (Tick)
system.l3cache.ReadSharedReq.mshrMissLatency::cpu.data   6621595000                       # number of ReadSharedReq MSHR miss ticks (Tick)
[...]
system.mem_ctrl.dram.bytesInstRead::total        46208                       # Number of instructions bytes read from this memory (Byte)
system.mem_ctrl.dram.bytesWritten::writebacks      4728448                       # Number of bytes written to this memory (Byte)
system.mem_ctrl.dram.bytesWritten::total      4728448                       # Number of bytes written to this memory (Byte)
system.mem_ctrl.dram.numReads::cpu.inst           722                       # Number of read requests responded to by this memory (Count)
system.mem_ctrl.dram.numReads::cpu.data        147934                       # Number of read requests responded to by this memory (Count)
system.mem_ctrl.dram.numReads::total           148656                       # Number of read requests responded to by this memory (Count)
system.mem_ctrl.dram.numWrites::writebacks        73882                       # Number of write requests responded to by this memory (Count)
system.mem_ctrl.dram.numWrites::total           73882                       # Number of write requests responded to by this memory (Count)
system.mem_ctrl.dram.bwRead::cpu.inst           30081                       # Total read bandwidth from this memory ((Byte/Second))
system.mem_ctrl.dram.bwRead::cpu.data         6163388                       # Total read bandwidth from this memory ((Byte/Second))
system.mem_ctrl.dram.bwRead::total            6193468                       # Total read bandwidth from this memory ((Byte/Second))
system.mem_ctrl.dram.bwInstRead::cpu.inst        30081                       # Instruction read bandwidth from this memory ((Byte/Second))
system.mem_ctrl.dram.bwInstRead::total          30081                       # Instruction read bandwidth from this memory ((Byte/Second))
system.mem_ctrl.dram.bwWrite::writebacks      3078152                       # Write bandwidth from this memory ((Byte/Second))
system.mem_ctrl.dram.bwWrite::total           3078152                       # Write bandwidth from this memory ((Byte/Second))
system.mem_ctrl.dram.bwTotal::writebacks      3078152                       # Total bandwidth to/from this memory ((Byte/Second))
system.mem_ctrl.dram.bwTotal::cpu.inst          30081                       # Total bandwidth to/from this memory ((Byte/Second))
system.mem_ctrl.dram.bwTotal::cpu.data        6163388                       # Total bandwidth to/from this memory ((Byte/Second))
system.mem_ctrl.dram.bwTotal::total           9271621                       # Total bandwidth to/from this memory ((Byte/Second))
system.mem_ctrl.dram.readBursts                148641                       # Number of DRAM read bursts (Count)
system.mem_ctrl.dram.writeBursts                73867                       # Number of DRAM write bursts (Count)
system.mem_ctrl.dram.perBankRdBursts::0          9384                       # Per bank write bursts (Count)
system.mem_ctrl.dram.perBankRdBursts::1          9369                       # Per bank write bursts (Count)
system.mem_ctrl.dram.perBankRdBursts::2          9302                       # Per bank write bursts (Count)
system.mem_ctrl.dram.perBankRdBursts::3          9252                       # Per bank write bursts (Count)
system.mem_ctrl.dram.perBankRdBursts::4          9361                       # Per bank write bursts (Count)
system.mem_ctrl.dram.perBankRdBursts::5          9336                       # Per bank write bursts (Count)
system.mem_ctrl.dram.perBankRdBursts::6          9224                       # Per bank write bursts (Count)
system.mem_ctrl.dram.perBankRdBursts::7          9332                       # Per bank write bursts (Count)
system.mem_ctrl.dram.perBankRdBursts::8          9264                       # Per bank write bursts (Count)
system.mem_ctrl.dram.perBankRdBursts::9          9231                       # Per bank write bursts (Count)
system.mem_ctrl.dram.perBankRdBursts::10         9273                       # Per bank write bursts (Count)
system.mem_ctrl.dram.perBankRdBursts::11         9244                       # Per bank write bursts (Count)
system.mem_ctrl.dram.perBankRdBursts::12         9275                       # Per bank write bursts (Count)
system.mem_ctrl.dram.perBankRdBursts::13         9273                       # Per bank write bursts (Count)
system.mem_ctrl.dram.perBankRdBursts::14         9255                       # Per bank write bursts (Count)
system.mem_ctrl.dram.perBankRdBursts::15         9266                       # Per bank write bursts (Count)
system.mem_ctrl.dram.perBankWrBursts::0          4608                       # Per bank write bursts (Count)
system.mem_ctrl.dram.perBankWrBursts::1          4608                       # Per bank write bursts (Count)
system.mem_ctrl.dram.perBankWrBursts::2          4658                       # Per bank write bursts (Count)
system.mem_ctrl.dram.perBankWrBursts::3          4626                       # Per bank write bursts (Count)
system.mem_ctrl.dram.perBankWrBursts::4          4648                       # Per bank write bursts (Count)
system.mem_ctrl.dram.perBankWrBursts::5          4647                       # Per bank write bursts (Count)
system.mem_ctrl.dram.perBankWrBursts::6          4595                       # Per bank write bursts (Count)
system.mem_ctrl.dram.perBankWrBursts::7          4608                       # Per bank write bursts (Count)
system.mem_ctrl.dram.perBankWrBursts::8          4608                       # Per bank write bursts (Count)
system.mem_ctrl.dram.perBankWrBursts::9          4608                       # Per bank write bursts (Count)
system.mem_ctrl.dram.perBankWrBursts::10         4608                       # Per bank write bursts (Count)
system.mem_ctrl.dram.perBankWrBursts::11         4608                       # Per bank write bursts (Count)
system.mem_ctrl.dram.perBankWrBursts::12         4608                       # Per bank write bursts (Count)
system.mem_ctrl.dram.perBankWrBursts::13         4608                       # Per bank write bursts (Count)
system.mem_ctrl.dram.perBankWrBursts::14         4609                       # Per bank write bursts (Count)
system.mem_ctrl.dram.perBankWrBursts::15         4612                       # Per bank write bursts (Count)
system.mem_ctrl.dram.totQLat               2368154500                       # Total ticks spent queuing (Tick)
system.mem_ctrl.dram.totBusLat              743205000                       # Total ticks spent in databus transfers (Tick)
system.mem_ctrl.dram.totMemAccLat          5155173250                       # Total ticks spent from burst creation until serviced by the DRAM (Tick)
system.mem_ctrl.dram.avgQLat                 15932.04                       # Average queueing delay per DRAM burst ((Tick/Count))
system.mem_ctrl.dram.avgBusLat                5000.00                       # Average bus latency per DRAM burst ((Tick/Count))
system.mem_ctrl.dram.avgMemAccLat            34682.04                       # Average memory access latency per DRAM burst ((Tick/Count))
system.mem_ctrl.dram.readRowHits                39623                       # Number of row buffer hits during reads (Count)
system.mem_ctrl.dram.writeRowHits               65359                       # Number of row buffer hits during writes (Count)
system.mem_ctrl.dram.readRowHitRate             26.66                       # Row buffer hit rate for reads (Ratio)
system.mem_ctrl.dram.writeRowHitRate            88.48                       # Row buffer hit rate for writes (Ratio)
system.mem_ctrl.dram.bytesPerActivate::samples       117520                       # Bytes accessed per row activation (Byte)
system.mem_ctrl.dram.bytesPerActivate::mean   121.165419                       # Bytes accessed per row activation (Byte)
system.mem_ctrl.dram.bytesPerActivate::gmean    90.219570                       # Bytes accessed per row activation (Byte)
system.mem_ctrl.dram.bytesPerActivate::stdev   170.341144                       # Bytes accessed per row activation (Byte)
system.mem_ctrl.dram.bytesPerActivate::0-127        75650     64.37%     64.37% # Bytes accessed per row activation (Byte)
system.mem_ctrl.dram.bytesPerActivate::128-255        37053     31.53%     95.90% # Bytes accessed per row activation (Byte)
system.mem_ctrl.dram.bytesPerActivate::256-383          318      0.27%     96.17% # Bytes accessed per row activation (Byte)
system.mem_ctrl.dram.bytesPerActivate::384-511          237      0.20%     96.37% # Bytes accessed per row activation (Byte)
system.mem_ctrl.dram.bytesPerActivate::512-639          222      0.19%     96.56% # Bytes accessed per row activation (Byte)
system.mem_ctrl.dram.bytesPerActivate::640-767          219      0.19%     96.75% # Bytes accessed per row activation (Byte)
system.mem_ctrl.dram.bytesPerActivate::768-895          234      0.20%     96.95% # Bytes accessed per row activation (Byte)
system.mem_ctrl.dram.bytesPerActivate::896-1023          311      0.26%     97.21% # Bytes accessed per row activation (Byte)
system.mem_ctrl.dram.bytesPerActivate::1024-1151         3276      2.79%    100.00% # Bytes accessed per row activation (Byte)
system.mem_ctrl.dram.bytesPerActivate::total       117520                       # Bytes accessed per row activation (Byte)
system.mem_ctrl.dram.bytesRead                9513024                       # Total bytes read (Byte)
system.mem_ctrl.dram.bytesWritten             4727488                       # Total bytes written (Byte)
system.mem_ctrl.dram.avgRdBW                 6.192844                       # Average DRAM read bandwidth in MiBytes/s ((Byte/Second))
system.mem_ctrl.dram.avgWrBW                 3.077528                       # Average DRAM write bandwidth in MiBytes/s ((Byte/Second))
system.mem_ctrl.dram.peakBW                  12800.00                       # Theoretical peak bandwidth in MiByte/s ((Byte/Second))
system.mem_ctrl.dram.busUtil                     0.07                       # Data bus utilization in percentage (Ratio)
system.mem_ctrl.dram.busUtilRead                 0.05                       # Data bus utilization in percentage for reads (Ratio)
system.mem_ctrl.dram.busUtilWrite                0.02                       # Data bus utilization in percentage for writes (Ratio)
system.mem_ctrl.dram.pageHitRate                47.18                       # Row buffer hit rate, read and write combined (Ratio)
system.mem_ctrl.dram.power_state.pwrStateResidencyTicks::UNDEFINED 1536131821000                       # Cumulative time (in ticks) in various power states (Tick)
system.mem_ctrl.dram.rank0.actEnergy        420810180                       # Energy for activate commands per rank (pJ) (Joule)
system.mem_ctrl.dram.rank0.preEnergy        223654530                       # Energy for precharge commands per rank (pJ) (Joule)
system.mem_ctrl.dram.rank0.readEnergy       532358400                       # Energy for read commands per rank (pJ) (Joule)
system.mem_ctrl.dram.rank0.writeEnergy      193129560                       # Energy for write commands per rank (pJ) (Joule)
system.mem_ctrl.dram.rank0.refreshEnergy 121260481680.000015                       # Energy for refresh commands per rank (pJ) (Joule)
system.mem_ctrl.dram.rank0.actBackEnergy 134650022130                       # Energy for active background per rank (pJ) (Joule)
system.mem_ctrl.dram.rank0.preBackEnergy 476485127040                       # Energy for precharge background per rank (pJ) (Joule)
system.mem_ctrl.dram.rank0.actPowerDownEnergy            0                       # Energy for active power-down per rank (pJ) (Joule)
system.mem_ctrl.dram.rank0.prePowerDownEnergy            0                       # Energy for precharge power-down per rank (pJ) (Joule)
system.mem_ctrl.dram.rank0.selfRefreshEnergy            0                       # Energy for self refresh per rank (pJ) (Joule)
system.mem_ctrl.dram.rank0.totalEnergy   733765583520                       # Total energy per rank (pJ) (Joule)
system.mem_ctrl.dram.rank0.averagePower    477.670974                       # Core power per rank (mW) (Watt)
system.mem_ctrl.dram.rank0.totalIdleTime            0                       # Total Idle time Per DRAM Rank (Tick)
system.mem_ctrl.dram.rank0.pwrStateTime::IDLE 1237317512250                       # Time in different power states (Tick)
system.mem_ctrl.dram.rank0.pwrStateTime::REF  51294620000                       # Time in different power states (Tick)
system.mem_ctrl.dram.rank0.pwrStateTime::SREF            0                       # Time in different power states (Tick)
system.mem_ctrl.dram.rank0.pwrStateTime::PRE_PDN            0                       # Time in different power states (Tick)
system.mem_ctrl.dram.rank0.pwrStateTime::ACT 247519688750                       # Time in different power states (Tick)
system.mem_ctrl.dram.rank0.pwrStateTime::ACT_PDN            0                       # Time in different power states (Tick)
system.mem_ctrl.dram.rank1.actEnergy        418325460                       # Energy for activate commands per rank (pJ) (Joule)
system.mem_ctrl.dram.rank1.preEnergy        222333870                       # Energy for precharge commands per rank (pJ) (Joule)
system.mem_ctrl.dram.rank1.readEnergy       528938340                       # Energy for read commands per rank (pJ) (Joule)
system.mem_ctrl.dram.rank1.writeEnergy      192456180                       # Energy for write commands per rank (pJ) (Joule)
system.mem_ctrl.dram.rank1.refreshEnergy 121260481680.000015                       # Energy for refresh commands per rank (pJ) (Joule)
system.mem_ctrl.dram.rank1.actBackEnergy 134590885200                       # Energy for active background per rank (pJ) (Joule)
system.mem_ctrl.dram.rank1.preBackEnergy 476534926560                       # Energy for precharge background per rank (pJ) (Joule)
system.mem_ctrl.dram.rank1.actPowerDownEnergy            0                       # Energy for active power-down per rank (pJ) (Joule)
system.mem_ctrl.dram.rank1.prePowerDownEnergy            0                       # Energy for precharge power-down per rank (pJ) (Joule)
system.mem_ctrl.dram.rank1.selfRefreshEnergy            0                       # Energy for self refresh per rank (pJ) (Joule)
system.mem_ctrl.dram.rank1.totalEnergy   733748347290                       # Total energy per rank (pJ) (Joule)
system.mem_ctrl.dram.rank1.averagePower    477.659754                       # Core power per rank (mW) (Watt)
system.mem_ctrl.dram.rank1.totalIdleTime            0                       # Total Idle time Per DRAM Rank (Tick)
system.mem_ctrl.dram.rank1.pwrStateTime::IDLE 1237450365000                       # Time in different power states (Tick)
system.mem_ctrl.dram.rank1.pwrStateTime::REF  51294620000                       # Time in different power states (Tick)
system.mem_ctrl.dram.rank1.pwrStateTime::SREF            0                       # Time in different power states (Tick)
system.mem_ctrl.dram.rank1.pwrStateTime::PRE_PDN            0                       # Time in different power states (Tick)
system.mem_ctrl.dram.rank1.pwrStateTime::ACT 247386836000                       # Time in different power states (Tick)
system.mem_ctrl.dram.rank1.pwrStateTime::ACT_PDN            0                       # Time in different power states (Tick)
system.mem_ctrl.power_state.pwrStateResidencyTicks::UNDEFINED 1536131821000                       # Cumulative time (in ticks) in various power states (Tick)
system.membus.transDist::ReadResp               74622                       # Transaction distribution (Count)
system.membus.transDist::WritebackDirty         73882                       # Transaction distribution (Count)
system.membus.transDist::CleanEvict              8738                       # Transaction distribution (Count)
system.membus.transDist::ReadExReq              74034                       # Transaction distribution (Count)
system.membus.transDist::ReadExResp             74034                       # Transaction distribution (Count)
system.membus.transDist::ReadSharedReq          74622                       # Transaction distribution (Count)
system.membus.pktCount_system.l3cache.mem_side_port::system.mem_ctrl.port       379932                       # Packet count per connected requestor and responder (Count)
system.membus.pktCount::total                  379932                       # Packet count per connected requestor and responder (Count)
system.membus.pktSize_system.l3cache.mem_side_port::system.mem_ctrl.port     14242432                       # Cumulative packet size per connected requestor and responder (Byte)
system.membus.pktSize::total                 14242432                       # Cumulative packet size per connected requestor and responder (Byte)
system.membus.snoops                                0                       # Total snoops (Count)
system.membus.snoopTraffic                          0                       # Total snoop traffic (Byte)
system.membus.snoopFanout::samples             148656                       # Request fanout histogram (Count)
system.membus.snoopFanout::mean                     0                       # Request fanout histogram (Count)
system.membus.snoopFanout::stdev                    0                       # Request fanout histogram (Count)
system.membus.snoopFanout::underflows               0      0.00%      0.00% # Request fanout histogram (Count)
system.membus.snoopFanout::0                   148656    100.00%    100.00% # Request fanout histogram (Count)
system.membus.snoopFanout::1                        0      0.00%    100.00% # Request fanout histogram (Count)
system.membus.snoopFanout::overflows                0      0.00%    100.00% # Request fanout histogram (Count)
system.membus.snoopFanout::min_value                0                       # Request fanout histogram (Count)
system.membus.snoopFanout::max_value                0                       # Request fanout histogram (Count)
system.membus.snoopFanout::total               148656                       # Request fanout histogram (Count)
system.membus.power_state.pwrStateResidencyTicks::UNDEFINED 1536131821000                       # Cumulative time (in ticks) in various power states (Tick)
system.membus.reqLayer0.occupancy           526804000                       # Layer occupancy (ticks) (Tick)
system.membus.reqLayer0.utilization               0.0                       # Layer utilization (Ratio)
system.membus.respLayer0.occupancy          807205250                       # Layer occupancy (ticks) (Tick)
system.membus.respLayer0.utilization              0.0                       # Layer utilization (Ratio)
system.membus.snoop_filter.totRequests         231276                       # Total number of requests made to the snoop filter. (Count)
system.membus.snoop_filter.hitSingleRequests        82620                       # Number of requests hitting in the snoop filter with a single holder of the requested data. (Count)
system.membus.snoop_filter.hitMultiRequests            0                       # Number of requests hitting in the snoop filter with multiple (>1) holders of the requested data. (Count)
system.membus.snoop_filter.totSnoops                0                       # Total number of snoops made to the snoop filter. (Count)
system.membus.snoop_filter.hitSingleSnoops            0                       # Number of snoops hitting in the snoop filter with a single holder of the requested data. (Count)
system.membus.snoop_filter.hitMultiSnoops            0                       # Number of snoops hitting in the snoop filter with multiple (>1) holders of the requested data. (Count)
system.workload.inst.arm                            0                       # number of arm instructions executed (Count)
system.workload.inst.quiesce                        0                       # number of quiesce instructions executed (Count)

---------- End Simulation Statistics   ----------
