
---------- Begin Simulation Statistics ----------
simSeconds                                   0.376754                       # Number of seconds simulated (Second)
simTicks                                 376754039000                       # Number of ticks simulated (Tick)
finalTick                                376754039000                       # Number of ticks from beginning of simulation (restored from checkpoints and never reset) (Tick)
simFreq                                  1000000000000                       # The number of ticks per simulated second ((Tick/Second))
hostSeconds                                     80.15                       # Real time elapsed on the host (Second)
hostTickRate                               4700400166                       # The number of ticks simulated per host second (ticks/s) ((Tick/Second))
hostMemory                                    8550740                       # Number of bytes of host memory used (Byte)
simInsts                                    124665567                       # Number of instructions simulated (Count)
simOps                                      124665567                       # Number of ops (including micro ops) simulated (Count)
hostInstRate                                  1555331                       # Simulator instruction rate (inst/s) ((Count/Second))
hostOpRate                                    1555331                       # Simulator op (including micro ops) rate (op/s) ((Count/Second))
system.clk_domain.clock                          1000                       # Clock period in ticks (Tick)
system.clk_domain.voltage_domain.voltage            1                       # Voltage in Volts (Volt)
system.cpu.numCycles                        376754039                       # Number of cpu cycles simulated (Cycle)
system.cpu.numWorkItemsStarted                      0                       # Number of work items this cpu started (Count)
system.cpu.numWorkItemsCompleted                    0                       # Number of work items this cpu completed (Count)
system.cpu.dcache.demandHits::cpu.data       61601734                       # number of demand (read+write) hits (Count)
system.cpu.dcache.demandHits::total          61601734                       # number of demand (read+write) hits (Count)
system.cpu.dcache.overallHits::cpu.data      61601734                       # number of overall hits (Count)
system.cpu.dcache.overallHits::total         61601734                       # number of overall hits (Count)
system.cpu.dcache.demandMisses::cpu.data        64837                       # number of demand (read+write) misses (Count)
system.cpu.dcache.demandMisses::total           64837                       # number of demand (read+write) misses (Count)
system.cpu.dcache.overallMisses::cpu.data        64837                       # number of overall misses (Count)
system.cpu.dcache.overallMisses::total          64837                       # number of overall misses (Count)
system.cpu.dcache.demandMissLatency::cpu.data   4116884000                       # number of demand (read+write) miss ticks (Tick)
system.cpu.dcache.demandMissLatency::total   4116884000                       # number of demand (read+write) miss ticks (Tick)
system.cpu.dcache.overallMissLatency::cpu.data   4116884000                       # number of overall miss ticks (Tick)
system.cpu.dcache.overallMissLatency::total   4116884000                       # number of overall miss ticks (Tick)
system.cpu.dcache.demandAccesses::cpu.data     61666571                       # number of demand (read+write) accesses (Count)
system.cpu.dcache.demandAccesses::total      61666571                       # number of demand (read+write) accesses (Count)
system.cpu.dcache.overallAccesses::cpu.data     61666571                       # number of overall (read+write) accesses (Count)
system.cpu.dcache.overallAccesses::total     61666571                       # number of overall (read+write) accesses (Count)
system.cpu.dcache.demandMissRate::cpu.data     0.001051                       # miss rate for demand accesses (Ratio)
system.cpu.dcache.demandMissRate::total      0.001051                       # miss rate for demand accesses (Ratio)
system.cpu.dcache.overallMissRate::cpu.data     0.001051                       # miss rate for overall accesses (Ratio)
system.cpu.dcache.overallMissRate::total     0.001051                       # miss rate for overall accesses (Ratio)
system.cpu.dcache.demandAvgMissLatency::cpu.data 63495.905116                       # average overall miss latency ((Cycle/Count))
system.cpu.dcache.demandAvgMissLatency::total 63495.905116                       # average overall miss latency ((Cycle/Count))
system.cpu.dcache.overallAvgMissLatency::cpu.data 63495.905116                       # average overall miss latency ((Cycle/Count))
system.cpu.dcache.overallAvgMissLatency::total 63495.905116                       # average overall miss latency ((Cycle/Count))
system.cpu.dcache.blockedCycles::no_mshrs            0                       # number of cycles access was blocked (Cycle)
system.cpu.dcache.blockedCycles::no_targets            0                       # number of cycles access was blocked (Cycle)
system.cpu.dcache.blockedCauses::no_mshrs            0                       # number of times access was blocked (Count)
system.cpu.dcache.blockedCauses::no_targets            0                       # number of times access was blocked (Count)
system.cpu.dcache.avgBlocked::no_mshrs            nan                       # average number of cycles each access was blocked ((Cycle/Count))
system.cpu.dcache.avgBlocked::no_targets          nan                       # average number of cycles each access was blocked ((Cycle/Count))
system.cpu.dcache.writebacks::writebacks        31880                       # number of writebacks (Count)
system.cpu.dcache.writebacks::total             31880                       # number of writebacks (Count)
system.cpu.dcache.demandMshrMisses::cpu.data        64837                       # number of demand (read+write) MSHR misses (Count)
system.cpu.dcache.demandMshrMisses::total        64837                       # number of demand (read+write) MSHR misses (Count)
system.cpu.dcache.overallMshrMisses::cpu.data        64837                       # number of overall MSHR misses (Count)
system.cpu.dcache.overallMshrMisses::total        64837                       # number of overall MSHR misses (Count)
system.cpu.dcache.demandMshrMissLatency::cpu.data   3987210000                       # number of demand (read+write) MSHR miss ticks (Tick)
system.cpu.dcache.demandMshrMissLatency::total   3987210000                       # number of demand (read+write) MSHR miss ticks (Tick)
system.cpu.dcache.overallMshrMissLatency::cpu.data   3987210000                       # number of overall MSHR miss ticks (Tick)
system.cpu.dcache.overallMshrMissLatency::total   3987210000                       # number of overall MSHR miss ticks (Tick)
system.cpu.dcache.demandMshrMissRate::cpu.data     0.001051                       # mshr miss ratio for demand accesses (Ratio)
system.cpu.dcache.demandMshrMissRate::total     0.001051                       # mshr miss ratio for demand accesses (Ratio)
system.cpu.dcache.overallMshrMissRate::cpu.data     0.001051                       # mshr miss ratio for overall accesses (Ratio)
system.cpu.dcache.overallMshrMissRate::total     0.001051                       # mshr miss ratio for overall accesses (Ratio)
system.cpu.dcache.demandAvgMshrMissLatency::cpu.data 61495.905116                       # average overall mshr miss latency ((Cycle/Count))
system.cpu.dcache.demandAvgMshrMissLatency::total 61495.905116                       # average overall mshr miss latency ((Cycle/Count))
system.cpu.dcache.overallAvgMshrMissLatency::cpu.data 61495.905116                       # average overall mshr miss latency ((Cycle/Count))
system.cpu.dcache.overallAvgMshrMissLatency::total 61495.905116                       # average overall mshr miss latency ((Cycle/Count))
system.cpu.dcache.replacements                  64293                       # number of replacements (Count)
system.cpu.dcache.ReadReq.hits::cpu.data     44438858                       # number of ReadReq hits (Count)
system.cpu.dcache.ReadReq.hits::total        44438858                       # number of ReadReq hits (Count)
system.cpu.dcache.ReadReq.misses::cpu.data        52703                       # number of ReadReq misses (Count)
system.cpu.dcache.ReadReq.misses::total         52703                       # number of ReadReq misses (Count)
system.cpu.dcache.ReadReq.missLatency::cpu.data   2898769000                       # number of ReadReq miss ticks (Tick)
system.cpu.dcache.ReadReq.missLatency::total   2898769000                       # number of ReadReq miss ticks (Tick)
system.cpu.dcache.ReadReq.accesses::cpu.data     44491561                       # number of ReadReq accesses(hits+misses) (Count)
system.cpu.dcache.ReadReq.accesses::total     44491561                       # number of ReadReq accesses(hits+misses) (Count)
system.cpu.dcache.ReadReq.missRate::cpu.data     0.001185                       # miss rate for ReadReq accesses (Ratio)
system.cpu.dcache.ReadReq.missRate::total     0.001185                       # miss rate for ReadReq accesses (Ratio)
system.cpu.dcache.ReadReq.avgMissLatency::cpu.data 55001.973322                       # average ReadReq miss latency ((Tick/Count))
system.cpu.dcache.ReadReq.avgMissLatency::total 55001.973322                       # average ReadReq miss latency ((Tick/Count))
system.cpu.dcache.ReadReq.mshrMisses::cpu.data        52703                       # number of ReadReq MSHR misses (Count)
system.cpu.dcache.ReadReq.mshrMisses::total        52703                       # number of ReadReq MSHR misses (Count)
system.cpu.dcache.ReadReq.mshrMissLatency::cpu.data   2793363000                       # number of ReadReq MSHR miss ticks (Tick)
system.cpu.dcache.ReadReq.mshrMissLatency::total   2793363000                       # number of ReadReq MSHR miss ticks (Tick)
system.cpu.dcache.ReadReq.mshrMissRate::cpu.data     0.001185                       # mshr miss rate for ReadReq accesses (Ratio)
system.cpu.dcache.ReadReq.mshrMissRate::total     0.001185                       # mshr miss rate for ReadReq accesses (Ratio)
system.cpu.dcache.ReadReq.avgMshrMissLatency::cpu.data 53001.973322                       # average ReadReq mshr miss latency ((Tick/Count))
system.cpu.dcache.ReadReq.avgMshrMissLatency::total 53001.973322                       # average ReadReq mshr miss latency ((Tick/Count))
system.cpu.dcache.WriteReq.hits::cpu.data     17162876                       # number of WriteReq hits (Count)
system.cpu.dcache.WriteReq.hits::total       17162876                       # number of WriteReq hits (Count)
system.cpu.dcache.WriteReq.misses::cpu.data        12134                       # number of WriteReq misses (Count)
system.cpu.dcache.WriteReq.misses::total        12134                       # number of WriteReq misses (Count)
system.cpu.dcache.WriteReq.missLatency::cpu.data   1218115000                       # number of WriteReq miss ticks (Tick)
system.cpu.dcache.WriteReq.missLatency::total   1218115000                       # number of WriteReq miss ticks (Tick)
system.cpu.dcache.WriteReq.accesses::cpu.data     17175010                       # number of WriteReq accesses(hits+misses) (Count)
system.cpu.dcache.WriteReq.accesses::total     17175010                       # number of WriteReq accesses(hits+misses) (Count)
system.cpu.dcache.WriteReq.missRate::cpu.data     0.000706                       # miss rate for WriteReq accesses (Ratio)
system.cpu.dcache.WriteReq.missRate::total     0.000706                       # miss rate for WriteReq accesses (Ratio)
system.cpu.dcache.WriteReq.avgMissLatency::cpu.data 100388.577551                       # average WriteReq miss latency ((Tick/Count))
system.cpu.dcache.WriteReq.avgMissLatency::total 100388.577551                       # average WriteReq miss latency ((Tick/Count))
system.cpu.dcache.WriteReq.mshrMisses::cpu.data        12134                       # number of WriteReq MSHR misses (Count)
system.cpu.dcache.WriteReq.mshrMisses::total        12134                       # number of WriteReq MSHR misses (Count)
system.cpu.dcache.WriteReq.mshrMissLatency::cpu.data   1193847000                       # number of WriteReq MSHR miss ticks (Tick)
system.cpu.dcache.WriteReq.mshrMissLatency::total   1193847000                       # number of WriteReq MSHR miss ticks (Tick)
system.cpu.dcache.WriteReq.mshrMissRate::cpu.data     0.000706                       # mshr miss rate for WriteReq accesses (Ratio)
system.cpu.dcache.WriteReq.mshrMissRate::total     0.000706                       # mshr miss rate for WriteReq accesses (Ratio)
system.cpu.dcache.WriteReq.avgMshrMissLatency::cpu.data 98388.577551                       # average WriteReq mshr miss latency ((Tick/Count))
system.cpu.dcache.WriteReq.avgMshrMissLatency::total 98388.577551                       # average WriteReq mshr miss latency ((Tick/Count))
system.cpu.dcache.power_state.pwrStateResidencyTicks::UNDEFINED 376754039000                       # Cumulative time (in ticks) in various power states (Tick)
system.cpu.dcache.tags.tagsInUse           511.273873                       # Average ticks per tags in use ((Tick/Count))
system.cpu.dcache.tags.totalRefs             61666571                       # Total number of references to valid blocks. (Count)
system.cpu.dcache.tags.sampledRefs              64805                       # Sample count of references to valid blocks. (Count)
system.cpu.dcache.tags.avgRefs             951.571190                       # Average number of references to valid blocks. ((Count/Count))
system.cpu.dcache.tags.warmupTick              306000                       # The tick when the warmup percentage was hit. (Tick)
system.cpu.dcache.tags.occupancies::cpu.data   511.273873                       # Average occupied blocks per tick, per requestor ((Count/Tick))
system.cpu.dcache.tags.avgOccs::cpu.data     0.998582                       # Average percentage of cache occupancy ((Ratio/Tick))
system.cpu.dcache.tags.avgOccs::total        0.998582                       # Average percentage of cache occupancy ((Ratio/Tick))
system.cpu.dcache.tags.occupanciesTaskId::1024          512                       # Occupied blocks per task id (Count)
system.cpu.dcache.tags.ageTaskId_1024::0           13                       # Occupied blocks per task id, per block age (Count)
system.cpu.dcache.tags.ageTaskId_1024::1           57                       # Occupied blocks per task id, per block age (Count)
system.cpu.dcache.tags.ageTaskId_1024::2           81                       # Occupied blocks per task id, per block age (Count)
system.cpu.dcache.tags.ageTaskId_1024::3          361                       # Occupied blocks per task id, per block age (Count)
system.cpu.dcache.tags.ratioOccsTaskId::1024            1                       # Ratio of occupied blocks and all blocks, per task id (Ratio)
system.cpu.dcache.tags.tagAccesses           61731376                       # Number of tag accesses (Count)
system.cpu.dcache.tags.dataAccesses          61731376                       # Number of data accesses (Count)
system.cpu.dcache.tags.power_state.pwrStateResidencyTicks::UNDEFINED 376754039000                       # Cumulative time (in ticks) in various power states (Tick)
system.cpu.exec_context.thread_0.numInsts    124665567                       # Number of instructions committed (Count)
system.cpu.exec_context.thread_0.numOps     124665567                       # Number of ops (including micro ops) committed (Count)
system.cpu.exec_context.thread_0.numIntAluAccesses    124633327                       # Number of integer alu accesses (Count)
system.cpu.exec_context.thread_0.numFpAluAccesses           18                       # Number of float alu accesses (Count)
system.cpu.exec_context.thread_0.numVecAluAccesses            0                       # Number of vector alu accesses (Count)
system.cpu.exec_context.thread_0.numCallsReturns        32454                       # Number of times a function call or return occured (Count)
system.cpu.exec_context.thread_0.numCondCtrlInsts      5085025                       # Number of instructions that are conditional controls (Count)
system.cpu.exec_context.thread_0.numIntInsts    124633327                       # Number of integer instructions (Count)
system.cpu.exec_context.thread_0.numFpInsts           18                       # Number of float instructions (Count)
system.cpu.exec_context.thread_0.numVecInsts            0                       # Number of vector instructions (Count)
system.cpu.exec_context.thread_0.numIntRegReads    183649694                       # Number of times the integer registers were read (Count)
system.cpu.exec_context.thread_0.numIntRegWrites    107491384                       # Number of times the integer registers were written (Count)
system.cpu.exec_context.thread_0.numFpRegReads           18                       # Number of times the floating registers were read (Count)
system.cpu.exec_context.thread_0.numFpRegWrites            0                       # Number of times the floating registers were written (Count)
system.cpu.exec_context.thread_0.numVecRegReads            0                       # Number of times the vector registers were read (Count)
system.cpu.exec_context.thread_0.numVecRegWrites            0                       # Number of times the vector registers were written (Count)
system.cpu.exec_context.thread_0.numVecPredRegReads            0                       # Number of times the predicate registers were read (Count)
system.cpu.exec_context.thread_0.numVecPredRegWrites            0                       # Number of times the predicate registers were written (Count)
system.cpu.exec_context.thread_0.numMiscRegReads            0                       # Number of times the Misc registers were read (Count)
system.cpu.exec_context.thread_0.numMiscRegWrites            0                       # Number of times the Misc registers were written (Count)
system.cpu.exec_context.thread_0.numMemRefs     61666674                       # Number of memory refs (Count)
system.cpu.exec_context.thread_0.numLoadInsts     44491561                       # Number of load instructions (Count)
system.cpu.exec_context.thread_0.numStoreInsts     17175113                       # Number of store instructions (Count)
system.cpu.exec_context.thread_0.numIdleCycles     0.001000                       # Number of idle cycles (Cycle)
system.cpu.exec_context.thread_0.numBusyCycles 376754038.999000                       # Number of busy cycles (Cycle)
system.cpu.exec_context.thread_0.notIdleFraction     1.000000                       # Percentage of non-idle cycles (Ratio)
system.cpu.exec_context.thread_0.idleFraction     0.000000                       # Percentage of idle cycles (Ratio)
system.cpu.exec_context.thread_0.numBranches      5149532                       # Number of branches fetched (Count)
system.cpu.exec_context.thread_0.statExecutedInstType::No_OpClass            0      0.00%      0.00% # Class of executed instruction. (Count)
system.cpu.exec_context.thread_0.statExecutedInstType::IntAlu     62999007     50.53%     50.53% # Class of executed instruction. (Count)
system.cpu.exec_context.thread_0.statExecutedInstType::IntMult            0      0.00%     50.53% # Class of executed instruction. (Count)
system.cpu.exec_context.thread_0.statExecutedInstType::IntDiv            0      0.00%     50.53% # Class of executed instruction. (Count)
system.cpu.exec_context.thread_0.statExecutedInstType::FloatAdd            0      0.00%     50.53% # Class of executed instruction. (Count)
system.cpu.exec_context.thread_0.statExecutedInstType::FloatCmp            0      0.00%     50.53% # Class of executed instruction. (Count)
system.cpu.exec_context.thread_0.statExecutedInstType::FloatCvt            0      0.00%     50.53% # Class of executed instruction. (Count)
system.cpu.exec_context.thread_0.statExecutedInstType::FloatMult            0      0.00%     50.53% # Class of executed instruction. (Count)
system.cpu.exec_context.thread_0.statExecutedInstType::FloatMultAcc            0      0.00%     50.53% # Class of executed instruction. (Count)
system.cpu.exec_context.thread_0.statExecutedInstType::FloatDiv            0      0.00%     50.53% # Class of executed instruction. (Count)
system.cpu.exec_context.thread_0.statExecutedInstType::FloatMisc            0      0.00%     50.53% # Class of executed instruction. (Count)
system.cpu.exec_context.thread_0.statExecutedInstType::FloatSqrt            0      0.00%     50.53% # Class of executed instruction. (Count)
system.cpu.exec_context.thread_0.statExecutedInstType::SimdAdd            0      0.00%     50.53% # Class of executed instruction. (Count)
system.cpu.exec_context.thread_0.statExecutedInstType::SimdAddAcc            0      0.00%     50.53% # Class of executed instruction. (Count)
system.cpu.exec_context.thread_0.statExecutedInstType::SimdAlu            0      0.00%     50.53% # Class of executed instruction. (Count)
system.cpu.exec_context.thread_0.statExecutedInstType::SimdCmp            0      0.00%     50.53% # Class of executed instruction. (Count)
system.cpu.exec_context.thread_0.statExecutedInstType::SimdCvt            0      0.00%     50.53% # Class of executed instruction. (Count)
system.cpu.exec_context.thread_0.statExecutedInstType::SimdMisc            0      0.00%     50.53% # Class of executed instruction. (Count)
system.cpu.exec_context.thread_0.statExecutedInstType::SimdMult            0      0.00%     50.53% # Class of executed instruction. (Count)
system.cpu.exec_context.thread_0.statExecutedInstType::SimdMultAcc            0      0.00%     50.53% # Class of executed instruction. (Count)
system.cpu.exec_context.thread_0.statExecutedInstType::SimdShift            0      0.00%     50.53% # Class of executed instruction. (Count)
system.cpu.exec_context.thread_0.statExecutedInstType::SimdShiftAcc            0      0.00%     50.53% # Class of executed instruction. (Count)
system.cpu.exec_context.thread_0.statExecutedInstType::SimdDiv            0      0.00%     50.53% # Class of executed instruction. (Count)
system.cpu.exec_context.thread_0.statExecutedInstType::SimdSqrt            0      0.00%     50.53% # Class of executed instruction. (Count)
system.cpu.exec_context.thread_0.statExecutedInstType::SimdFloatAdd            0      0.00%     50.53% # Class of executed instruction. (Count)
system.cpu.exec_context.thread_0.statExecutedInstType::SimdFloatAlu            0      0.00%     50.53% # Class of executed instruction. (Count)
system.cpu.exec_context.thread_0.statExecutedInstType::SimdFloatCmp            0      0.00%     50.53% # Class of executed instruction. (Count)
system.cpu.exec_context.thread_0.statExecutedInstType::SimdFloatCvt            0      0.00%     50.53% # Class of executed instruction. (Count)
system.cpu.exec_context.thread_0.statExecutedInstType::SimdFloatDiv            0      0.00%     50.53% # Class of executed instruction. (Count)
system.cpu.exec_context.thread_0.statExecutedInstType::SimdFloatMisc            0      0.00%     50.53% # Class of executed instruction. (Count)
system.cpu.exec_context.thread_0.statExecutedInstType::SimdFloatMult            0      0.00%     50.53% # Class of executed instruction. (Count)
system.cpu.exec_context.thread_0.statExecutedInstType::SimdFloatMultAcc            0      0.00%     50.53% # Class of executed instruction. (Count)
system.cpu.exec_context.thread_0.statExecutedInstType::SimdFloatSqrt            0      0.00%     50.53% # Class of executed instruction. (Count)
system.cpu.exec_context.thread_0.statExecutedInstType::SimdReduceAdd            0      0.00%     50.53% # Class of executed instruction. (Count)
system.cpu.exec_context.thread_0.statExecutedInstType::SimdReduceAlu            0      0.00%     50.53% # Class of executed instruction. (Count)
system.cpu.exec_context.thread_0.statExecutedInstType::SimdReduceCmp            0      0.00%     50.53% # Class of executed instruction. (Count)
system.cpu.exec_context.thread_0.statExecutedInstType::SimdFloatReduceAdd            0      0.00%     50.53% # Class of executed instruction. (Count)
system.cpu.exec_context.thread_0.statExecutedInstType::SimdFloatReduceCmp            0      0.00%     50.53% # Class of executed instruction. (Count)
system.cpu.exec_context.thread_0.statExecutedInstType::SimdAes            0      0.00%     50.53% # Class of executed instruction. (Count)
system.cpu.exec_context.thread_0.statExecutedInstType::SimdAesMix            0      0.00%     50.53% # Class of executed instruction. (Count)
system.cpu.exec_context.thread_0.statExecutedInstType::SimdSha1Hash            0      0.00%     50.53% # Class of executed instruction. (Count)
system.cpu.exec_context.thread_0.statExecutedInstType::SimdSha1Hash2            0      0.00%     50.53% # Class of executed instruction. (Count)
system.cpu.exec_context.thread_0.statExecutedInstType::SimdSha256Hash            0      0.00%     50.53% # Class of executed instruction. (Count)
system.cpu.exec_context.thread_0.statExecutedInstType::SimdSha256Hash2            0      0.00%     50.53% # Class of executed instruction. (Count)
system.cpu.exec_context.thread_0.statExecutedInstType::SimdShaSigma2            0      0.00%     50.53% # Class of executed instruction. (Count)
system.cpu.exec_context.thread_0.statExecutedInstType::SimdShaSigma3            0      0.00%     50.53% # Class of executed instruction. (Count)
system.cpu.exec_context.thread_0.statExecutedInstType::SimdPredAlu            0      0.00%     50.53% # Class of executed instruction. (Count)
system.cpu.exec_context.thread_0.statExecutedInstType::MemRead     44491561     35.69%     86.22% # Class of executed instruction. (Count)
system.cpu.exec_context.thread_0.statExecutedInstType::MemWrite     17175095     13.78%    100.00% # Class of executed instruction. (Count)
system.cpu.exec_context.thread_0.statExecutedInstType::FloatMemRead            0      0.00%    100.00% # Class of executed instruction. (Count)
system.cpu.exec_context.thread_0.statExecutedInstType::FloatMemWrite           18      0.00%    100.00% # Class of executed instruction. (Count)
system.cpu.exec_context.thread_0.statExecutedInstType::IprAccess            0      0.00%    100.00% # Class of executed instruction. (Count)
system.cpu.exec_context.thread_0.statExecutedInstType::InstPrefetch            0      0.00%    100.00% # Class of executed instruction. (Count)
system.cpu.exec_context.thread_0.statExecutedInstType::total    124665681                       # Class of executed instruction. (Count)
system.cpu.icache.demandHits::cpu.inst      124664855                       # number of demand (read+write) hits (Count)
system.cpu.icache.demandHits::total         124664855                       # number of demand (read+write) hits (Count)
system.cpu.icache.overallHits::cpu.inst     124664855                       # number of overall hits (Count)
system.cpu.icache.overallHits::total        124664855                       # number of overall hits (Count)
system.cpu.icache.demandMisses::cpu.inst          826                       # number of demand (read+write) misses (Count)
system.cpu.icache.demandMisses::total             826                       # number of demand (read+write) misses (Count)
system.cpu.icache.overallMisses::cpu.inst          826                       # number of overall misses (Count)
system.cpu.icache.overallMisses::total            826                       # number of overall misses (Count)
system.cpu.icache.demandMissLatency::cpu.inst    103979000                       # number of demand (read+write) miss ticks (Tick)
system.cpu.icache.demandMissLatency::total    103979000                       # number of demand (read+write) miss ticks (Tick)
system.cpu.icache.overallMissLatency::cpu.inst    103979000                       # number of overall miss ticks (Tick)
system.cpu.icache.overallMissLatency::total    103979000                       # number of overall miss ticks (Tick)
system.cpu.icache.demandAccesses::cpu.inst    124665681                       # number of demand (read+write) accesses (Count)
system.cpu.icache.demandAccesses::total     124665681                       # number of demand (read+write) accesses (Count)
system.cpu.icache.overallAccesses::cpu.inst    124665681                       # number of overall (read+write) accesses (Count)
system.cpu.icache.overallAccesses::total    124665681                       # number of overall (read+write) accesses (Count)
system.cpu.icache.demandMissRate::cpu.inst     0.000007                       # miss rate for demand accesses (Ratio)
system.cpu.icache.demandMissRate::total      0.000007                       # miss rate for demand accesses (Ratio)
system.cpu.icache.overallMissRate::cpu.inst     0.000007                       # miss rate for overall accesses (Ratio)
system.cpu.icache.overallMissRate::total     0.000007                       # miss rate for overall accesses (Ratio)
system.cpu.icache.demandAvgMissLatency::cpu.inst 125882.566586                       # average overall miss latency ((Cycle/Count))
system.cpu.icache.demandAvgMissLatency::total 125882.566586                       # average overall miss latency ((Cycle/Count))
system.cpu.icache.overallAvgMissLatency::cpu.inst 125882.566586                       # average overall miss latency ((Cycle/Count))
system.cpu.icache.overallAvgMissLatency::total 125882.566586                       # average overall miss latency ((Cycle/Count))
system.cpu.icache.blockedCycles::no_mshrs            0                       # number of cycles access was blocked (Cycle)
system.cpu.icache.blockedCycles::no_targets            0                       # number of cycles access was blocked (Cycle)
system.cpu.icache.blockedCauses::no_mshrs            0                       # number of times access was blocked (Count)
system.cpu.icache.blockedCauses::no_targets            0                       # number of times access was blocked (Count)
system.cpu.icache.avgBlocked::no_mshrs            nan                       # average number of cycles each access was blocked ((Cycle/Count))
system.cpu.icache.avgBlocked::no_targets          nan                       # average number of cycles each access was blocked ((Cycle/Count))
system.cpu.icache.demandMshrMisses::cpu.inst          826                       # number of demand (read+write) MSHR misses (Count)
system.cpu.icache.demandMshrMisses::total          826                       # number of demand (read+write) MSHR misses (Count)
system.cpu.icache.overallMshrMisses::cpu.inst          826                       # number of overall MSHR misses (Count)
system.cpu.icache.overallMshrMisses::total          826                       # number of overall MSHR misses (Count)
system.cpu.icache.demandMshrMissLatency::cpu.inst    102327000                       # number of demand (read+write) MSHR miss ticks (Tick)
system.cpu.icache.demandMshrMissLatency::total    102327000                       # number of demand (read+write) MSHR miss ticks (Tick)
system.cpu.icache.overallMshrMissLatency::cpu.inst    102327000                       # number of overall MSHR miss ticks (Tick)
system.cpu.icache.overallMshrMissLatency::total    102327000                       # number of overall MSHR miss ticks (Tick)
system.cpu.icache.demandMshrMissRate::cpu.inst     0.000007                       # mshr miss ratio for demand accesses (Ratio)
system.cpu.icache.demandMshrMissRate::total     0.000007                       # mshr miss ratio for demand accesses (Ratio)
system.cpu.icache.overallMshrMissRate::cpu.inst     0.000007                       # mshr miss ratio for overall accesses (Ratio)
system.cpu.icache.overallMshrMissRate::total     0.000007                       # mshr miss ratio for overall accesses (Ratio)
system.cpu.icache.demandAvgMshrMissLatency::cpu.inst 123882.566586                       # average overall mshr miss latency ((Cycle/Count))
system.cpu.icache.demandAvgMshrMissLatency::total 123882.566586                       # average overall mshr miss latency ((Cycle/Count))
system.cpu.icache.overallAvgMshrMissLatency::cpu.inst 123882.566586                       # average overall mshr miss latency ((Cycle/Count))
system.cpu.icache.overallAvgMshrMissLatency::total 123882.566586                       # average overall mshr miss latency ((Cycle/Count))
system.cpu.icache.replacements                    578                       # number of replacements (Count)
system.cpu.icache.ReadReq.hits::cpu.inst    124664855                       # number of ReadReq hits (Count)
system.cpu.icache.ReadReq.hits::total       124664855                       # number of ReadReq hits (Count)
system.cpu.icache.ReadReq.misses::cpu.inst          826                       # number of ReadReq misses (Count)
system.cpu.icache.ReadReq.misses::total           826                       # number of ReadReq misses (Count)
system.cpu.icache.ReadReq.missLatency::cpu.inst    103979000                       # number of ReadReq miss ticks (Tick)
system.cpu.icache.ReadReq.missLatency::total    103979000                       # number of ReadReq miss ticks (Tick)
system.cpu.icache.ReadReq.accesses::cpu.inst    124665681                       # number of ReadReq accesses(hits+misses) (Count)
system.cpu.icache.ReadReq.accesses::total    124665681                       # number of ReadReq accesses(hits+misses) (Count)
system.cpu.icache.ReadReq.missRate::cpu.inst     0.000007                       # miss rate for ReadReq accesses (Ratio)
system.cpu.icache.ReadReq.missRate::total     0.000007                       # miss rate for ReadReq accesses (Ratio)
system.cpu.icache.ReadReq.avgMissLatency::cpu.inst 125882.566586                       # average ReadReq miss latency ((Tick/Count))
system.cpu.icache.ReadReq.avgMissLatency::total 125882.566586                       # average ReadReq miss latency ((Tick/Count))
system.cpu.icache.ReadReq.mshrMisses::cpu.inst          826                       # number of ReadReq MSHR misses (Count)
system.cpu.icache.ReadReq.mshrMisses::total          826                       # number of ReadReq MSHR misses (Count)
system.cpu.icache.ReadReq.mshrMissLatency::cpu.inst    102327000                       # number of ReadReq MSHR miss ticks (Tick)
system.cpu.icache.ReadReq.mshrMissLatency::total    102327000                       # number of ReadReq MSHR miss ticks (Tick)
system.cpu.icache.ReadReq.mshrMissRate::cpu.inst     0.000007                       # mshr miss rate for ReadReq accesses (Ratio)
system.cpu.icache.ReadReq.mshrMissRate::total     0.000007                       # mshr miss rate for ReadReq accesses (Ratio)
system.cpu.icache.ReadReq.avgMshrMissLatency::cpu.inst 123882.566586                       # average ReadReq mshr miss latency ((Tick/Count))
system.cpu.icache.ReadReq.avgMshrMissLatency::total 123882.566586                       # average ReadReq mshr miss latency ((Tick/Count))
system.cpu.icache.power_state.pwrStateResidencyTicks::UNDEFINED 376754039000                       # Cumulative time (in ticks) in various power states (Tick)
system.cpu.icache.tags.tagsInUse           241.070111                       # Average ticks per tags in use ((Tick/Count))
system.cpu.icache.tags.totalRefs            124665681                       # Total number of references to valid blocks. (Count)
system.cpu.icache.tags.sampledRefs                826                       # Sample count of references to valid blocks. (Count)
system.cpu.icache.tags.avgRefs           150926.974576                       # Average number of references to valid blocks. ((Count/Count))
system.cpu.icache.tags.warmupTick              149000                       # The tick when the warmup percentage was hit. (Tick)
system.cpu.icache.tags.occupancies::cpu.inst   241.070111                       # Average occupied blocks per tick, per requestor ((Count/Tick))
system.cpu.icache.tags.avgOccs::cpu.inst     0.941680                       # Average percentage of cache occupancy ((Ratio/Tick))
system.cpu.icache.tags.avgOccs::total        0.941680                       # Average percentage of cache occupancy ((Ratio/Tick))
system.cpu.icache.tags.occupanciesTaskId::1024          248                       # Occupied blocks per task id (Count)
system.cpu.icache.tags.ageTaskId_1024::0           42                       # Occupied blocks per task id, per block age (Count)
system.cpu.icache.tags.ageTaskId_1024::1           76                       # Occupied blocks per task id, per block age (Count)
system.cpu.icache.tags.ageTaskId_1024::4          130                       # Occupied blocks per task id, per block age (Count)
system.cpu.icache.tags.ratioOccsTaskId::1024     0.968750                       # Ratio of occupied blocks and all blocks, per task id (Ratio)
system.cpu.icache.tags.tagAccesses          124666507                       # Number of tag accesses (Count)
system.cpu.icache.tags.dataAccesses         124666507                       # Number of data accesses (Count)
system.cpu.icache.tags.power_state.pwrStateResidencyTicks::UNDEFINED 376754039000                       # Cumulative time (in ticks) in various power states (Tick)
system.cpu.power_state.pwrStateResidencyTicks::ON 376754039000                       # Cumulative time (in ticks) in various power states (Tick)
system.cpu.thread_0.numInsts                        0                       # Number of Instructions committed (Count)
system.cpu.thread_0.numOps                          0                       # Number of Ops committed (Count)
system.cpu.thread_0.numMemRefs                      0                       # Number of Memory References (Count)
system.cpu.workload.numSyscalls                    10                       # Number of system calls (Count)
system.l2bus.transDist::ReadResp                53529                       # Transaction distribution (Count)
system.l2bus.transDist::WritebackDirty          68662                       # Transaction distribution (Count)
system.l2bus.transDist::CleanEvict              33834                       # Transaction distribution (Count)
system.l2bus.transDist::UpgradeReq                 32                       # Transaction distribution (Count)
system.l2bus.transDist::UpgradeResp                32                       # Transaction distribution (Count)
system.l2bus.transDist::ReadExReq               12102                       # Transaction distribution (Count)
system.l2bus.transDist::ReadExResp              12102                       # Transaction distribution (Count)
system.l2bus.transDist::ReadSharedReq           53529                       # Transaction distribution (Count)
system.l2bus.pktCount_system.cpu.icache.mem_side_port::system.l2cache.cpu_side_port         2230                       # Packet count per connected requestor and responder (Count)
system.l2bus.pktCount_system.cpu.dcache.mem_side_port::system.l2cache.cpu_side_port       193967                       # Packet count per connected requestor and responder (Count)
system.l2bus.pktCount::total                   196197                       # Packet count per connected requestor and responder (Count)
system.l2bus.pktSize_system.cpu.icache.mem_side_port::system.l2cache.cpu_side_port        52864                       # Cumulative packet size per connected requestor and responder (Byte)
system.l2bus.pktSize_system.cpu.dcache.mem_side_port::system.l2cache.cpu_side_port      6187840                       # Cumulative packet size per connected requestor and responder (Byte)
system.l2bus.pktSize::total                   6240704                       # Cumulative packet size per connected requestor and responder (Byte)
system.l2bus.snoops                             37625                       # Total snoops (Count)
system.l2bus.snoopTraffic                     2354048                       # Total snoop traffic (Byte)
system.l2bus.snoopFanout::samples              103288                       # Request fanout histogram (Count)
system.l2bus.snoopFanout::mean               0.004541                       # Request fanout histogram (Count)
system.l2bus.snoopFanout::stdev              0.067232                       # Request fanout histogram (Count)
system.l2bus.snoopFanout::underflows                0      0.00%      0.00% # Request fanout histogram (Count)
system.l2bus.snoopFanout::0                    102819     99.55%     99.55% # Request fanout histogram (Count)
system.l2bus.snoopFanout::1                       469      0.45%    100.00% # Request fanout histogram (Count)
system.l2bus.snoopFanout::2                         0      0.00%    100.00% # Request fanout histogram (Count)
system.l2bus.snoopFanout::overflows                 0      0.00%    100.00% # Request fanout histogram (Count)
system.l2bus.snoopFanout::min_value                 0                       # Request fanout histogram (Count)
system.l2bus.snoopFanout::max_value                 1                       # Request fanout histogram (Count)
system.l2bus.snoopFanout::total                103288                       # Request fanout histogram (Count)
system.l2bus.power_state.pwrStateResidencyTicks::UNDEFINED 376754039000                       # Cumulative time (in ticks) in various power states (Tick)
system.l2bus.reqLayer0.occupancy            194294000                       # Layer occupancy (ticks) (Tick)
system.l2bus.reqLayer0.utilization                0.0                       # Layer utilization (Ratio)
system.l2bus.respLayer0.occupancy             2478000                       # Layer occupancy (ticks) (Tick)
system.l2bus.respLayer0.utilization               0.0                       # Layer utilization (Ratio)
system.l2bus.respLayer1.occupancy           194447000                       # Layer occupancy (ticks) (Tick)
system.l2bus.respLayer1.utilization               0.0                       # Layer utilization (Ratio)
system.l2bus.snoop_filter.totRequests          130534                       # Total number of requests made to the snoop filter. (Count)
system.l2bus.snoop_filter.hitSingleRequests        64903                       # Number of requests hitting in the snoop filter with a single holder of the requested data. (Count)
system.l2bus.snoop_filter.hitMultiRequests            4                       # Number of requests hitting in the snoop filter with multiple (>1) holders of the requested data. (Count)
system.l2bus.snoop_filter.totSnoops               465                       # Total number of snoops made to the snoop filter. (Count)
system.l2bus.snoop_filter.hitSingleSnoops          465                       # Number of snoops hitting in the snoop filter with a single holder of the requested data. (Count)
system.l2bus.snoop_filter.hitMultiSnoops            0                       # Number of snoops hitting in the snoop filter with multiple (>1) holders of the requested data. (Count)
system.l2cache.demandHits::cpu.inst                95                       # number of demand (read+write) hits (Count)
system.l2cache.demandHits::cpu.data             25962                       # number of demand (read+write) hits (Count)
system.l2cache.demandHits::total                26057                       # number of demand (read+write) hits (Count)
system.l2cache.overallHits::cpu.inst               95                       # number of overall hits (Count)
system.l2cache.overallHits::cpu.data            25962                       # number of overall hits (Count)
system.l2cache.overallHits::total               26057                       # number of overall hits (Count)
system.l2cache.demandMisses::cpu.inst             731                       # number of demand (read+write) misses (Count)
system.l2cache.demandMisses::cpu.data           38843                       # number of demand (read+write) misses (Count)
system.l2cache.demandMisses::total              39574                       # number of demand (read+write) misses (Count)
system.l2cache.overallMisses::cpu.inst            731                       # number of overall misses (Count)
system.l2cache.overallMisses::cpu.data          38843                       # number of overall misses (Count)
system.l2cache.overallMisses::total             39574                       # number of overall misses (Count)
system.l2cache.demandMissLatency::cpu.inst     97848000                       # number of demand (read+write) miss ticks (Tick)
system.l2cache.demandMissLatency::cpu.data   2969069000                       # number of demand (read+write) miss ticks (Tick)
system.l2cache.demandMissLatency::total    3066917000                       # number of demand (read+write) miss ticks (Tick)
system.l2cache.overallMissLatency::cpu.inst     97848000                       # number of overall miss ticks (Tick)
system.l2cache.overallMissLatency::cpu.data   2969069000                       # number of overall miss ticks (Tick)
system.l2cache.overallMissLatency::total   3066917000                       # number of overall miss ticks (Tick)
system.l2cache.demandAccesses::cpu.inst           826                       # number of demand (read+write) accesses (Count)
system.l2cache.demandAccesses::cpu.data         64805                       # number of demand (read+write) accesses (Count)
system.l2cache.demandAccesses::total            65631                       # number of demand (read+write) accesses (Count)
system.l2cache.overallAccesses::cpu.inst          826                       # number of overall (read+write) accesses (Count)
system.l2cache.overallAccesses::cpu.data        64805                       # number of overall (read+write) accesses (Count)
system.l2cache.overallAccesses::total           65631                       # number of overall (read+write) accesses (Count)
system.l2cache.demandMissRate::cpu.inst      0.884988                       # miss rate for demand accesses (Ratio)
system.l2cache.demandMissRate::cpu.data      0.599383                       # miss rate for demand accesses (Ratio)
system.l2cache.demandMissRate::total         0.602977                       # miss rate for demand accesses (Ratio)
system.l2cache.overallMissRate::cpu.inst     0.884988                       # miss rate for overall accesses (Ratio)
system.l2cache.overallMissRate::cpu.data     0.599383                       # miss rate for overall accesses (Ratio)
system.l2cache.overallMissRate::total        0.602977                       # miss rate for overall accesses (Ratio)
system.l2cache.demandAvgMissLatency::cpu.inst 133854.993160                       # average overall miss latency ((Cycle/Count))
system.l2cache.demandAvgMissLatency::cpu.data 76437.685040                       # average overall miss latency ((Cycle/Count))
system.l2cache.demandAvgMissLatency::total 77498.281700                       # average overall miss latency ((Cycle/Count))
system.l2cache.overallAvgMissLatency::cpu.inst 133854.993160                       # average overall miss latency ((Cycle/Count))
system.l2cache.overallAvgMissLatency::cpu.data 76437.685040                       # average overall miss latency ((Cycle/Count))
system.l2cache.overallAvgMissLatency::total 77498.281700                       # average overall miss latency ((Cycle/Count))
system.l2cache.blockedCycles::no_mshrs              0                       # number of cycles access was blocked (Cycle)
system.l2cache.blockedCycles::no_targets            0                       # number of cycles access was blocked (Cycle)
system.l2cache.blockedCauses::no_mshrs              0                       # number of times access was blocked (Count)
system.l2cache.blockedCauses::no_targets            0                       # number of times access was blocked (Count)
system.l2cache.avgBlocked::no_mshrs               nan                       # average number of cycles each access was blocked ((Cycle/Count))
system.l2cache.avgBlocked::no_targets             nan                       # average number of cycles each access was blocked ((Cycle/Count))
system.l2cache.writebacks::writebacks           36782                       # number of writebacks (Count)
system.l2cache.writebacks::total                36782                       # number of writebacks (Count)
system.l2cache.demandMshrMisses::cpu.inst          731                       # number of demand (read+write) MSHR misses (Count)
system.l2cache.demandMshrMisses::cpu.data        38843                       # number of demand (read+write) MSHR misses (Count)
system.l2cache.demandMshrMisses::total          39574                       # number of demand (read+write) MSHR misses (Count)
system.l2cache.overallMshrMisses::cpu.inst          731                       # number of overall MSHR misses (Count)
system.l2cache.overallMshrMisses::cpu.data        38843                       # number of overall MSHR misses (Count)
system.l2cache.overallMshrMisses::total         39574                       # number of overall MSHR misses (Count)
system.l2cache.demandMshrMissLatency::cpu.inst     83228000                       # number of demand (read+write) MSHR miss ticks (Tick)
system.l2cache.demandMshrMissLatency::cpu.data   2192209000                       # number of demand (read+write) MSHR miss ticks (Tick)
system.l2cache.demandMshrMissLatency::total   2275437000                       # number of demand (read+write) MSHR miss ticks (Tick)
system.l2cache.overallMshrMissLatency::cpu.inst     83228000                       # number of overall MSHR miss ticks (Tick)
system.l2cache.overallMshrMissLatency::cpu.data   2192209000                       # number of overall MSHR miss ticks (Tick)
system.l2cache.overallMshrMissLatency::total   2275437000                       # number of overall MSHR miss ticks (Tick)
system.l2cache.demandMshrMissRate::cpu.inst     0.884988                       # mshr miss ratio for demand accesses (Ratio)
system.l2cache.demandMshrMissRate::cpu.data     0.599383                       # mshr miss ratio for demand accesses (Ratio)
system.l2cache.demandMshrMissRate::total     0.602977                       # mshr miss ratio for demand accesses (Ratio)
system.l2cache.overallMshrMissRate::cpu.inst     0.884988                       # mshr miss ratio for overall accesses (Ratio)
system.l2cache.overallMshrMissRate::cpu.data     0.599383                       # mshr miss ratio for overall accesses (Ratio)
system.l2cache.overallMshrMissRate::total     0.602977                       # mshr miss ratio for overall accesses (Ratio)
system.l2cache.demandAvgMshrMissLatency::cpu.inst 113854.993160                       # average overall mshr miss latency ((Cycle/Count))
system.l2cache.demandAvgMshrMissLatency::cpu.data 56437.685040                       # average overall mshr miss latency ((Cycle/Count))
system.l2cache.demandAvgMshrMissLatency::total 57498.281700                       # average overall mshr miss latency ((Cycle/Count))
system.l2cache.overallAvgMshrMissLatency::cpu.inst 113854.993160                       # average overall mshr miss latency ((Cycle/Count))
system.l2cache.overallAvgMshrMissLatency::cpu.data 56437.685040                       # average overall mshr miss latency ((Cycle/Count))
system.l2cache.overallAvgMshrMissLatency::total 57498.281700                       # average overall mshr miss latency ((Cycle/Count))
system.l2cache.replacements                     37534                       # number of replacements (Count)
system.l2cache.CleanEvict.mshrMisses::writebacks          235                       # number of CleanEvict MSHR misses (Count)
system.l2cache.CleanEvict.mshrMisses::total          235                       # number of CleanEvict MSHR misses (Count)
system.l2cache.CleanEvict.mshrMissRate::writebacks          inf                       # mshr miss rate for CleanEvict accesses (Ratio)
system.l2cache.CleanEvict.mshrMissRate::total          inf                       # mshr miss rate for CleanEvict accesses (Ratio)
system.l2cache.ReadExReq.hits::cpu.data          5452                       # number of ReadExReq hits (Count)
system.l2cache.ReadExReq.hits::total             5452                       # number of ReadExReq hits (Count)
system.l2cache.ReadExReq.misses::cpu.data         6650                       # number of ReadExReq misses (Count)
system.l2cache.ReadExReq.misses::total           6650                       # number of ReadExReq misses (Count)
system.l2cache.ReadExReq.missLatency::cpu.data    928881000                       # number of ReadExReq miss ticks (Tick)
system.l2cache.ReadExReq.missLatency::total    928881000                       # number of ReadExReq miss ticks (Tick)
system.l2cache.ReadExReq.accesses::cpu.data        12102                       # number of ReadExReq accesses(hits+misses) (Count)
system.l2cache.ReadExReq.accesses::total        12102                       # number of ReadExReq accesses(hits+misses) (Count)
system.l2cache.ReadExReq.missRate::cpu.data     0.549496                       # miss rate for ReadExReq accesses (Ratio)
system.l2cache.ReadExReq.missRate::total     0.549496                       # miss rate for ReadExReq accesses (Ratio)
system.l2cache.ReadExReq.avgMissLatency::cpu.data 139681.353383                       # average ReadExReq miss latency ((Tick/Count))
system.l2cache.ReadExReq.avgMissLatency::total 139681.353383                       # average ReadExReq miss latency ((Tick/Count))
system.l2cache.ReadExReq.mshrMisses::cpu.data         6650                       # number of ReadExReq MSHR misses (Count)
system.l2cache.ReadExReq.mshrMisses::total         6650                       # number of ReadExReq MSHR misses (Count)
system.l2cache.ReadExReq.mshrMissLatency::cpu.data    795881000                       # number of ReadExReq MSHR miss ticks (Tick)
system.l2cache.ReadExReq.mshrMissLatency::total    795881000                       # number of ReadExReq MSHR miss ticks (Tick)
system.l2cache.ReadExReq.mshrMissRate::cpu.data     0.549496                       # mshr miss rate for ReadExReq accesses (Ratio)
system.l2cache.ReadExReq.mshrMissRate::total     0.549496                       # mshr miss rate for ReadExReq accesses (Ratio)
system.l2cache.ReadExReq.avgMshrMissLatency::cpu.data 119681.353383                       # average ReadExReq mshr miss latency ((Tick/Count))
system.l2cache.ReadExReq.avgMshrMissLatency::total 119681.353383                       # average ReadExReq mshr miss latency ((Tick/Count))
system.l2cache.ReadSharedReq.hits::cpu.inst           95                       # number of ReadSharedReq hits (Count)
system.l2cache.ReadSharedReq.hits::cpu.data        20510                       # number of ReadSharedReq hits (Count)
system.l2cache.ReadSharedReq.hits::total        20605                       # number of ReadSharedReq hits (Count)
system.l2cache.ReadSharedReq.misses::cpu.inst          731                       # number of ReadSharedReq misses (Count)
system.l2cache.ReadSharedReq.misses::cpu.data        32193                       # number of ReadSharedReq misses (Count)
system.l2cache.ReadSharedReq.misses::total        32924                       # number of ReadSharedReq misses (Count)
system.l2cache.ReadSharedReq.missLatency::cpu.inst     97848000                       # number of ReadSharedReq miss ticks (Tick)
system.l2cache.ReadSharedReq.missLatency::cpu.data   2040188000                       # number of ReadSharedReq miss ticks (Tick)
system.l2cache.ReadSharedReq.missLatency::total   2138036000                       # number of ReadSharedReq miss ticks (Tick)
system.l2cache.ReadSharedReq.accesses::cpu.inst          826                       # number of ReadSharedReq accesses(hits+misses) (Count)
system.l2cache.ReadSharedReq.accesses::cpu.data        52703                       # number of ReadSharedReq accesses(hits+misses) (Count)
system.l2cache.ReadSharedReq.accesses::total        53529                       # number of ReadSharedReq accesses(hits+misses) (Count)
system.l2cache.ReadSharedReq.missRate::cpu.inst     0.884988                       # miss rate for ReadSharedReq accesses (Ratio)
system.l2cache.ReadSharedReq.missRate::cpu.data     0.610838                       # miss rate for ReadSharedReq accesses (Ratio)
system.l2cache.ReadSharedReq.missRate::total     0.615068                       # miss rate for ReadSharedReq accesses (Ratio)
system.l2cache.ReadSharedReq.avgMissLatency::cpu.inst 133854.993160                       # average ReadSharedReq miss latency ((Tick/Count))
system.l2cache.ReadSharedReq.avgMissLatency::cpu.data 63373.652657                       # average ReadSharedReq miss latency ((Tick/Count))
system.l2cache.ReadSharedReq.avgMissLatency::total 64938.525088                       # average ReadSharedReq miss latency ((Tick/Count))
system.l2cache.ReadSharedReq.mshrMisses::cpu.inst          731                       # number of ReadSharedReq MSHR misses (Count)
system.l2cache.ReadSharedReq.mshrMisses::cpu.data        32193                       # number of ReadSharedReq MSHR misses (Count)
system.l2cache.ReadSharedReq.mshrMisses::total        32924                       # number of ReadSharedReq MSHR misses (Count)
system.l2cache.ReadSharedReq.mshrMissLatency::cpu.inst     83228000                       # number of ReadSharedReq MSHR miss ticks (Tick)
system.l2cache.ReadSharedReq.mshrMissLatency::cpu.data   1396328000                       # number of ReadSharedReq MSHR miss ticks (Tick)
system.l2cache.ReadSharedReq.mshrMissLatency::total   1479556000                       # number of ReadSharedReq MSHR miss ticks (Tick)
system.l2cache.ReadSharedReq.mshrMissRate::cpu.inst     0.884988                       # mshr miss rate for ReadSharedReq accesses (Ratio)
system.l2cache.ReadSharedReq.mshrMissRate::cpu.data     0.610838                       # mshr miss rate for ReadSharedReq accesses (Ratio)
system.l2cache.ReadSharedReq.mshrMissRate::total     0.615068                       # mshr miss rate for ReadSharedReq accesses (Ratio)
system.l2cache.ReadSharedReq.avgMshrMissLatency::cpu.inst 113854.993160                       # average ReadSharedReq mshr miss latency ((Tick/Count))
system.l2cache.ReadSharedReq.avgMshrMissLatency::cpu.data 43373.652657                       # average ReadSharedReq mshr miss latency ((Tick/Count))
system.l2cache.ReadSharedReq.avgMshrMissLatency::total 44938.525088                       # average ReadSharedReq mshr miss latency ((Tick/Count))
system.l2cache.UpgradeReq.hits::cpu.data           32                       # number of UpgradeReq hits (Count)
system.l2cache.UpgradeReq.hits::total              32                       # number of UpgradeReq hits (Count)
system.l2cache.UpgradeReq.accesses::cpu.data           32                       # number of UpgradeReq accesses(hits+misses) (Count)
system.l2cache.UpgradeReq.accesses::total           32                       # number of UpgradeReq accesses(hits+misses) (Count)
system.l2cache.WritebackDirty.hits::writebacks        31880                       # number of WritebackDirty hits (Count)
system.l2cache.WritebackDirty.hits::total        31880                       # number of WritebackDirty hits (Count)
system.l2cache.WritebackDirty.accesses::writebacks        31880                       # number of WritebackDirty accesses(hits+misses) (Count)
system.l2cache.WritebackDirty.accesses::total        31880                       # number of WritebackDirty accesses(hits+misses) (Count)
system.l2cache.power_state.pwrStateResidencyTicks::UNDEFINED 376754039000                       # Cumulative time (in ticks) in various power states (Tick)
system.l2cache.tags.tagsInUse             2037.382754                       # Average ticks per tags in use ((Tick/Count))
system.l2cache.tags.totalRefs                  130295                       # Total number of references to valid blocks. (Count)
system.l2cache.tags.sampledRefs                 39582                       # Sample count of references to valid blocks. (Count)
system.l2cache.tags.avgRefs                  3.291774                       # Average number of references to valid blocks. ((Count/Count))
system.l2cache.tags.warmupTick                 128000                       # The tick when the warmup percentage was hit. (Tick)
system.l2cache.tags.occupancies::writebacks     0.299200                       # Average occupied blocks per tick, per requestor ((Count/Tick))
system.l2cache.tags.occupancies::cpu.inst    12.406225                       # Average occupied blocks per tick, per requestor ((Count/Tick))
system.l2cache.tags.occupancies::cpu.data  2024.677329                       # Average occupied blocks per tick, per requestor ((Count/Tick))
system.l2cache.tags.avgOccs::writebacks      0.000146                       # Average percentage of cache occupancy ((Ratio/Tick))
system.l2cache.tags.avgOccs::cpu.inst        0.006058                       # Average percentage of cache occupancy ((Ratio/Tick))
system.l2cache.tags.avgOccs::cpu.data        0.988612                       # Average percentage of cache occupancy ((Ratio/Tick))
system.l2cache.tags.avgOccs::total           0.994816                       # Average percentage of cache occupancy ((Ratio/Tick))
system.l2cache.tags.occupanciesTaskId::1024         2048                       # Occupied blocks per task id (Count)
system.l2cache.tags.ageTaskId_1024::0              60                       # Occupied blocks per task id, per block age (Count)
system.l2cache.tags.ageTaskId_1024::1             176                       # Occupied blocks per task id, per block age (Count)
system.l2cache.tags.ageTaskId_1024::2              82                       # Occupied blocks per task id, per block age (Count)
system.l2cache.tags.ageTaskId_1024::3             807                       # Occupied blocks per task id, per block age (Count)
system.l2cache.tags.ageTaskId_1024::4             923                       # Occupied blocks per task id, per block age (Count)
system.l2cache.tags.ratioOccsTaskId::1024            1                       # Ratio of occupied blocks and all blocks, per task id (Ratio)
system.l2cache.tags.tagAccesses                561702                       # Number of tag accesses (Count)
system.l2cache.tags.dataAccesses               561702                       # Number of data accesses (Count)
system.l2cache.tags.power_state.pwrStateResidencyTicks::UNDEFINED 376754039000                       # Cumulative time (in ticks) in various power states (Tick)
system.l3bus.transDist::ReadResp                32924                       # Transaction distribution (Count)
system.l3bus.transDist::WritebackDirty          36813                       # Transaction distribution (Count)
system.l3bus.transDist::CleanEvict                791                       # Transaction distribution (Count)
system.l3bus.transDist::ReadExReq                6650                       # Transaction distribution (Count)
system.l3bus.transDist::ReadExResp               6650                       # Transaction distribution (Count)
system.l3bus.transDist::ReadSharedReq           32924                       # Transaction distribution (Count)
system.l3bus.pktCount_system.l2cache.mem_side_port::system.l3cache.cpu_side_port       116544                       # Packet count per connected requestor and responder (Count)
system.l3bus.pktSize_system.l2cache.mem_side_port::system.l3cache.cpu_side_port      4886784                       # Cumulative packet size per connected requestor and responder (Byte)
system.l3bus.snoops                               208                       # Total snoops (Count)
system.l3bus.snoopTraffic                        1984                       # Total snoop traffic (Byte)
system.l3bus.snoopFanout::samples               39782                       # Request fanout histogram (Count)
system.l3bus.snoopFanout::mean               0.002287                       # Request fanout histogram (Count)
system.l3bus.snoopFanout::stdev              0.047773                       # Request fanout histogram (Count)
system.l3bus.snoopFanout::underflows                0      0.00%      0.00% # Request fanout histogram (Count)
system.l3bus.snoopFanout::0                     39691     99.77%     99.77% # Request fanout histogram (Count)
system.l3bus.snoopFanout::1                        91      0.23%    100.00% # Request fanout histogram (Count)
system.l3bus.snoopFanout::overflows                 0      0.00%    100.00% # Request fanout histogram (Count)
system.l3bus.snoopFanout::min_value                 0                       # Request fanout histogram (Count)
system.l3bus.snoopFanout::max_value                 1                       # Request fanout histogram (Count)
system.l3bus.snoopFanout::total                 39782                       # Request fanout histogram (Count)
system.l3bus.power_state.pwrStateResidencyTicks::UNDEFINED 376754039000                       # Cumulative time (in ticks) in various power states (Tick)
system.l3bus.reqLayer0.occupancy            150534000                       # Layer occupancy (ticks) (Tick)
system.l3bus.reqLayer0.utilization                0.0                       # Layer utilization (Ratio)
system.l3bus.respLayer0.occupancy           118722000                       # Layer occupancy (ticks) (Tick)
system.l3bus.respLayer0.utilization               0.0                       # Layer utilization (Ratio)
system.l3bus.snoop_filter.totRequests           76970                       # Total number of requests made to the snoop filter. (Count)
system.l3bus.snoop_filter.hitSingleRequests        37396                       # Number of requests hitting in the snoop filter with a single holder of the requested data. (Count)
system.l3bus.snoop_filter.hitMultiRequests            0                       # Number of requests hitting in the snoop filter with multiple (>1) holders of the requested data. (Count)
system.l3bus.snoop_filter.totSnoops                91                       # Total number of snoops made to the snoop filter. (Count)
system.l3bus.snoop_filter.hitSingleSnoops           91                       # Number of snoops hitting in the snoop filter with a single holder of the requested data. (Count)
system.l3bus.snoop_filter.hitMultiSnoops            0                       # Number of snoops hitting in the snoop filter with multiple (>1) holders of the requested data. (Count)
system.l3cache.demandHits::cpu.inst                53                       # number of demand (read+write) hits (Count)
system.l3cache.demandHits::cpu.data             32171                       # number of demand (read+write) hits (Count)
system.l3cache.demandHits::total                32224                       # number of demand (read+write) hits (Count)
system.l3cache.overallHits::cpu.inst               53                       # number of overall hits (Count)
system.l3cache.overallHits::cpu.data            32171                       # number of overall hits (Count)
system.l3cache.overallHits::total               32224                       # number of overall hits (Count)
system.l3cache.demandMisses::cpu.inst             678                       # number of demand (read+write) misses (Count)
system.l3cache.demandMisses::cpu.data            6672                       # number of demand (read+write) misses (Count)
system.l3cache.demandMisses::total               7350                       # number of demand (read+write) misses (Count)
system.l3cache.overallMisses::cpu.inst            678                       # number of overall misses (Count)
system.l3cache.overallMisses::cpu.data           6672                       # number of overall misses (Count)
system.l3cache.overallMisses::total              7350                       # number of overall misses (Count)
system.l3cache.demandMissLatency::cpu.inst     66033000                       # number of demand (read+write) miss ticks (Tick)
system.l3cache.demandMissLatency::cpu.data    662072000                       # number of demand (read+write) miss ticks (Tick)
system.l3cache.demandMissLatency::total     728105000                       # number of demand (read+write) miss ticks (Tick)
system.l3cache.overallMissLatency::cpu.inst     66033000                       # number of overall miss ticks (Tick)
system.l3cache.overallMissLatency::cpu.data    662072000                       # number of overall miss ticks (Tick)
system.l3cache.overallMissLatency::total    728105000                       # number of overall miss ticks (Tick)
system.l3cache.demandAccesses::cpu.inst           731                       # number of demand (read+write) accesses (Count)
system.l3cache.demandAccesses::cpu.data         38843                       # number of demand (read+write) accesses (Count)
system.l3cache.demandAccesses::total            39574                       # number of demand (read+write) accesses (Count)
system.l3cache.overallAccesses::cpu.inst          731                       # number of overall (read+write) accesses (Count)
system.l3cache.overallAccesses::cpu.data        38843                       # number of overall (read+write) accesses (Count)
system.l3cache.overallAccesses::total           39574                       # number of overall (read+write) accesses (Count)
system.l3cache.demandMissRate::cpu.inst      0.927497                       # miss rate for demand accesses (Ratio)
system.l3cache.demandMissRate::cpu.data      0.171768                       # miss rate for demand accesses (Ratio)
system.l3cache.demandMissRate::total         0.185728                       # miss rate for demand accesses (Ratio)
system.l3cache.overallMissRate::cpu.inst     0.927497                       # miss rate for overall accesses (Ratio)
system.l3cache.overallMissRate::cpu.data     0.171768                       # miss rate for overall accesses (Ratio)
system.l3cache.overallMissRate::total        0.185728                       # miss rate for overall accesses (Ratio)
system.l3cache.demandAvgMissLatency::cpu.inst 97393.805310                       # average overall miss latency ((Cycle/Count))
system.l3cache.demandAvgMissLatency::cpu.data 99231.414868                       # average overall miss latency ((Cycle/Count))
system.l3cache.demandAvgMissLatency::total 99061.904762                       # average overall miss latency ((Cycle/Count))
system.l3cache.overallAvgMissLatency::cpu.inst 97393.805310                       # average overall miss latency ((Cycle/Count))
system.l3cache.overallAvgMissLatency::cpu.data 99231.414868                       # average overall miss latency ((Cycle/Count))
system.l3cache.overallAvgMissLatency::total 99061.904762                       # average overall miss latency ((Cycle/Count))
system.l3cache.blockedCycles::no_mshrs              0                       # number of cycles access was blocked (Cycle)
system.l3cache.blockedCycles::no_targets            0                       # number of cycles access was blocked (Cycle)
system.l3cache.blockedCauses::no_mshrs              0                       # number of times access was blocked (Count)
system.l3cache.blockedCauses::no_targets            0                       # number of times access was blocked (Count)
system.l3cache.avgBlocked::no_mshrs               nan                       # average number of cycles each access was blocked ((Cycle/Count))
system.l3cache.avgBlocked::no_targets             nan                       # average number of cycles each access was blocked ((Cycle/Count))
system.l3cache.writebacks::writebacks              31                       # number of writebacks (Count)
system.l3cache.writebacks::total                   31                       # number of writebacks (Count)
system.l3cache.demandMshrMisses::cpu.inst          678                       # number of demand (read+write) MSHR misses (Count)
system.l3cache.demandMshrMisses::cpu.data         6672                       # number of demand (read+write) MSHR misses (Count)
system.l3cache.demandMshrMisses::total           7350                       # number of demand (read+write) MSHR misses (Count)
system.l3cache.overallMshrMisses::cpu.inst          678                       # number of overall MSHR misses (Count)
system.l3cache.overallMshrMisses::cpu.data         6672                       # number of overall MSHR misses (Count)
system.l3cache.overallMshrMisses::total          7350                       # number of overall MSHR misses (Count)
system.l3cache.demandMshrMissLatency::cpu.inst     52473000                       # number of demand (read+write) MSHR miss ticks (Tick)
system.l3cache.demandMshrMissLatency::cpu.data    528632000                       # number of demand (read+write) MSHR miss ticks (Tick)
system.l3cache.demandMshrMissLatency::total    581105000                       # number of demand (read+write) MSHR miss ticks (Tick)
system.l3cache.overallMshrMissLatency::cpu.inst     52473000                       # number of overall MSHR miss ticks (Tick)
system.l3cache.overallMshrMissLatency::cpu.data    528632000                       # number of overall MSHR miss ticks (Tick)
system.l3cache.overallMshrMissLatency::total    581105000                       # number of overall MSHR miss ticks (Tick)
system.l3cache.demandMshrMissRate::cpu.inst     0.927497                       # mshr miss ratio for demand accesses (Ratio)
system.l3cache.demandMshrMissRate::cpu.data     0.171768                       # mshr miss ratio for demand accesses (Ratio)
system.l3cache.demandMshrMissRate::total     0.185728                       # mshr miss ratio for demand accesses (Ratio)
system.l3cache.overallMshrMissRate::cpu.inst     0.927497                       # mshr miss ratio for overall accesses (Ratio)
system.l3cache.overallMshrMissRate::cpu.data     0.171768                       # mshr miss ratio for overall accesses (Ratio)
system.l3cache.overallMshrMissRate::total     0.185728                       # mshr miss ratio for overall accesses (Ratio)
system.l3cache.demandAvgMshrMissLatency::cpu.inst 77393.805310                       # average overall mshr miss latency ((Cycle/Count))
system.l3cache.demandAvgMshrMissLatency::cpu.data 79231.414868                       # average overall mshr miss latency ((Cycle/Count))
system.l3cache.demandAvgMshrMissLatency::total 79061.904762                       # average overall mshr miss latency ((Cycle/Count))
system.l3cache.overallAvgMshrMissLatency::cpu.inst 77393.805310                       # average overall mshr miss latency ((Cycle/Count))
system.l3cache.overallAvgMshrMissLatency::cpu.data 79231.414868                       # average overall mshr miss latency ((Cycle/Count))
system.l3cache.overallAvgMshrMissLatency::total 79061.904762                       # average overall mshr miss latency ((Cycle/Count))
system.l3cache.replacements                       208                       # number of replacements (Count)
system.l3cache.CleanEvict.mshrMisses::writebacks           65                       # number of CleanEvict MSHR misses (Count)
system.l3cache.CleanEvict.mshrMisses::total           65                       # number of CleanEvict MSHR misses (Count)
system.l3cache.CleanEvict.mshrMissRate::writebacks          inf                       # mshr miss rate for CleanEvict accesses (Ratio)
system.l3cache.CleanEvict.mshrMissRate::total          inf                       # mshr miss rate for CleanEvict accesses (Ratio)
system.l3cache.ReadExReq.hits::cpu.data           127                       # number of ReadExReq hits (Count)
system.l3cache.ReadExReq.hits::total              127                       # number of ReadExReq hits (Count)
system.l3cache.ReadExReq.misses::cpu.data         6523                       # number of ReadExReq misses (Count)
system.l3cache.ReadExReq.misses::total           6523                       # number of ReadExReq misses (Count)
system.l3cache.ReadExReq.missLatency::cpu.data    646914000                       # number of ReadExReq miss ticks (Tick)
system.l3cache.ReadExReq.missLatency::total    646914000                       # number of ReadExReq miss ticks (Tick)
system.l3cache.ReadExReq.accesses::cpu.data         6650                       # number of ReadExReq accesses(hits+misses) (Count)
system.l3cache.ReadExReq.accesses::total         6650                       # number of ReadExReq accesses(hits+misses) (Count)
system.l3cache.ReadExReq.missRate::cpu.data     0.980902                       # miss rate for ReadExReq accesses (Ratio)
system.l3cache.ReadExReq.missRate::total     0.980902                       # miss rate for ReadExReq accesses (Ratio)
system.l3cache.ReadExReq.avgMissLatency::cpu.data 99174.306301                       # average ReadExReq miss latency ((Tick/Count))
system.l3cache.ReadExReq.avgMissLatency::total 99174.306301                       # average ReadExReq miss latency ((Tick/Count))
system.l3cache.ReadExReq.mshrMisses::cpu.data         6523                       # number of ReadExReq MSHR misses (Count)
system.l3cache.ReadExReq.mshrMisses::total         6523                       # number of ReadExReq MSHR misses (Count)
system.l3cache.ReadExReq.mshrMissLatency::cpu.data    516454000                       # number of ReadExReq MSHR miss ticks (Tick)
system.l3cache.ReadExReq.mshrMissLatency::total    516454000                       # number of ReadExReq MSHR miss ticks (Tick)
system.l3cache.ReadExReq.mshrMissRate::cpu.data     0.980902                       # mshr miss rate for ReadExReq accesses (Ratio)
system.l3cache.ReadExReq.mshrMissRate::total     0.980902                       # mshr miss rate for ReadExReq accesses (Ratio)
system.l3cache.ReadExReq.avgMshrMissLatency::cpu.data 79174.306301                       # average ReadExReq mshr miss latency ((Tick/Count))
system.l3cache.ReadExReq.avgMshrMissLatency::total 79174.306301                       # average ReadExReq mshr miss latency ((Tick/Count))
system.l3cache.ReadSharedReq.hits::cpu.inst           53                       # number of ReadSharedReq hits (Count)
system.l3cache.ReadSharedReq.hits::cpu.data        32044                       # number of ReadSharedReq hits (Count)
system.l3cache.ReadSharedReq.hits::total        32097                       # number of ReadSharedReq hits (Count)
system.l3cache.ReadSharedReq.misses::cpu.inst          678                       # number of ReadSharedReq misses (Count)
system.l3cache.ReadSharedReq.misses::cpu.data          149                       # number of ReadSharedReq misses (Count)
system.l3cache.ReadSharedReq.misses::total          827                       # number of ReadSharedReq misses (Count)
system.l3cache.ReadSharedReq.missLatency::cpu.inst     66033000                       # number of ReadSharedReq miss ticks (Tick)
system.l3cache.ReadSharedReq.missLatency::cpu.data     15158000                       # number of ReadSharedReq miss ticks (Tick)
system.l3cache.ReadSharedReq.missLatency::total     81191000                       # number of ReadSharedReq miss ticks (Tick)
system.l3cache.ReadSharedReq.accesses::cpu.inst          731                       # number of ReadSharedReq accesses(hits+misses) (Count)
system.l3cache.ReadSharedReq.accesses::cpu.data        32193                       # number of ReadSharedReq accesses(hits+misses) (Count)
system.l3cache.ReadSharedReq.accesses::total        32924                       # number of ReadSharedReq accesses(hits+misses) (Count)
system.l3cache.ReadSharedReq.missRate::cpu.inst     0.927497                       # miss rate for ReadSharedReq accesses (Ratio)
[...]
system.mem_ctrl.dram.bytesInstRead::total        43392                       # Number of instructions bytes read from this memory (Byte)
system.mem_ctrl.dram.bytesWritten::writebacks         1984                       # Number of bytes written to this memory (Byte)
system.mem_ctrl.dram.bytesWritten::total         1984                       # Number of bytes written to this memory (Byte)
system.mem_ctrl.dram.numReads::cpu.inst           678                       # Number of read requests responded to by this memory (Count)
system.mem_ctrl.dram.numReads::cpu.data          6672                       # Number of read requests responded to by this memory (Count)
system.mem_ctrl.dram.numReads::total             7350                       # Number of read requests responded to by this memory (Count)
system.mem_ctrl.dram.numWrites::writebacks           31                       # Number of write requests responded to by this memory (Count)
system.mem_ctrl.dram.numWrites::total              31                       # Number of write requests responded to by this memory (Count)
system.mem_ctrl.dram.bwRead::cpu.inst          115173                       # Total read bandwidth from this memory ((Byte/Second))
system.mem_ctrl.dram.bwRead::cpu.data         1133387                       # Total read bandwidth from this memory ((Byte/Second))
system.mem_ctrl.dram.bwRead::total            1248560                       # Total read bandwidth from this memory ((Byte/Second))
system.mem_ctrl.dram.bwInstRead::cpu.inst       115173                       # Instruction read bandwidth from this memory ((Byte/Second))
system.mem_ctrl.dram.bwInstRead::total         115173                       # Instruction read bandwidth from this memory ((Byte/Second))
system.mem_ctrl.dram.bwWrite::writebacks         5266                       # Write bandwidth from this memory ((Byte/Second))
system.mem_ctrl.dram.bwWrite::total              5266                       # Write bandwidth from this memory ((Byte/Second))
system.mem_ctrl.dram.bwTotal::writebacks         5266                       # Total bandwidth to/from this memory ((Byte/Second))
system.mem_ctrl.dram.bwTotal::cpu.inst         115173                       # Total bandwidth to/from this memory ((Byte/Second))
system.mem_ctrl.dram.bwTotal::cpu.data        1133387                       # Total bandwidth to/from this memory ((Byte/Second))
system.mem_ctrl.dram.bwTotal::total           1253826                       # Total bandwidth to/from this memory ((Byte/Second))
system.mem_ctrl.dram.readBursts                  7336                       # Number of DRAM read bursts (Count)
system.mem_ctrl.dram.writeBursts                    0                       # Number of DRAM write bursts (Count)
system.mem_ctrl.dram.perBankRdBursts::0           541                       # Per bank write bursts (Count)
system.mem_ctrl.dram.perBankRdBursts::1           533                       # Per bank write bursts (Count)
system.mem_ctrl.dram.perBankRdBursts::2           458                       # Per bank write bursts (Count)
system.mem_ctrl.dram.perBankRdBursts::3           412                       # Per bank write bursts (Count)
system.mem_ctrl.dram.perBankRdBursts::4           502                       # Per bank write bursts (Count)
system.mem_ctrl.dram.perBankRdBursts::5           493                       # Per bank write bursts (Count)
system.mem_ctrl.dram.perBankRdBursts::6           450                       # Per bank write bursts (Count)
system.mem_ctrl.dram.perBankRdBursts::7           549                       # Per bank write bursts (Count)
system.mem_ctrl.dram.perBankRdBursts::8           434                       # Per bank write bursts (Count)
system.mem_ctrl.dram.perBankRdBursts::9           399                       # Per bank write bursts (Count)
system.mem_ctrl.dram.perBankRdBursts::10          439                       # Per bank write bursts (Count)
system.mem_ctrl.dram.perBankRdBursts::11          406                       # Per bank write bursts (Count)
system.mem_ctrl.dram.perBankRdBursts::12          435                       # Per bank write bursts (Count)
system.mem_ctrl.dram.perBankRdBursts::13          441                       # Per bank write bursts (Count)
system.mem_ctrl.dram.perBankRdBursts::14          423                       # Per bank write bursts (Count)
system.mem_ctrl.dram.perBankRdBursts::15          421                       # Per bank write bursts (Count)
system.mem_ctrl.dram.perBankWrBursts::0             0                       # Per bank write bursts (Count)
system.mem_ctrl.dram.perBankWrBursts::1             0                       # Per bank write bursts (Count)
system.mem_ctrl.dram.perBankWrBursts::2             0                       # Per bank write bursts (Count)
system.mem_ctrl.dram.perBankWrBursts::3             0                       # Per bank write bursts (Count)
system.mem_ctrl.dram.perBankWrBursts::4             0                       # Per bank write bursts (Count)
system.mem_ctrl.dram.perBankWrBursts::5             0                       # Per bank write bursts (Count)
system.mem_ctrl.dram.perBankWrBursts::6             0                       # Per bank write bursts (Count)
system.mem_ctrl.dram.perBankWrBursts::7             0                       # Per bank write bursts (Count)
system.mem_ctrl.dram.perBankWrBursts::8             0                       # Per bank write bursts (Count)
system.mem_ctrl.dram.perBankWrBursts::9             0                       # Per bank write bursts (Count)
system.mem_ctrl.dram.perBankWrBursts::10            0                       # Per bank write bursts (Count)
system.mem_ctrl.dram.perBankWrBursts::11            0                       # Per bank write bursts (Count)
system.mem_ctrl.dram.perBankWrBursts::12            0                       # Per bank write bursts (Count)
system.mem_ctrl.dram.perBankWrBursts::13            0                       # Per bank write bursts (Count)
system.mem_ctrl.dram.perBankWrBursts::14            0                       # Per bank write bursts (Count)
system.mem_ctrl.dram.perBankWrBursts::15            0                       # Per bank write bursts (Count)
system.mem_ctrl.dram.totQLat                 66197250                       # Total ticks spent queuing (Tick)
system.mem_ctrl.dram.totBusLat               36680000                       # Total ticks spent in databus transfers (Tick)
system.mem_ctrl.dram.totMemAccLat           203747250                       # Total ticks spent from burst creation until serviced by the DRAM (Tick)
system.mem_ctrl.dram.avgQLat                  9023.62                       # Average queueing delay per DRAM burst ((Tick/Count))
system.mem_ctrl.dram.avgBusLat                5000.00                       # Average bus latency per DRAM burst ((Tick/Count))
system.mem_ctrl.dram.avgMemAccLat            27773.62                       # Average memory access latency per DRAM burst ((Tick/Count))
system.mem_ctrl.dram.readRowHits                 4150                       # Number of row buffer hits during reads (Count)
system.mem_ctrl.dram.writeRowHits                   0                       # Number of row buffer hits during writes (Count)
system.mem_ctrl.dram.readRowHitRate             56.57                       # Row buffer hit rate for reads (Ratio)
system.mem_ctrl.dram.writeRowHitRate              nan                       # Row buffer hit rate for writes (Ratio)
system.mem_ctrl.dram.bytesPerActivate::samples         3184                       # Bytes accessed per row activation (Byte)
system.mem_ctrl.dram.bytesPerActivate::mean   147.396985                       # Bytes accessed per row activation (Byte)
system.mem_ctrl.dram.bytesPerActivate::gmean   137.272426                       # Bytes accessed per row activation (Byte)
system.mem_ctrl.dram.bytesPerActivate::stdev    82.604406                       # Bytes accessed per row activation (Byte)
system.mem_ctrl.dram.bytesPerActivate::0-127          226      7.10%      7.10% # Bytes accessed per row activation (Byte)
system.mem_ctrl.dram.bytesPerActivate::128-255         2879     90.42%     97.52% # Bytes accessed per row activation (Byte)
system.mem_ctrl.dram.bytesPerActivate::256-383           25      0.79%     98.30% # Bytes accessed per row activation (Byte)
system.mem_ctrl.dram.bytesPerActivate::384-511           16      0.50%     98.81% # Bytes accessed per row activation (Byte)
system.mem_ctrl.dram.bytesPerActivate::512-639           12      0.38%     99.18% # Bytes accessed per row activation (Byte)
system.mem_ctrl.dram.bytesPerActivate::640-767            7      0.22%     99.40% # Bytes accessed per row activation (Byte)
system.mem_ctrl.dram.bytesPerActivate::768-895            6      0.19%     99.59% # Bytes accessed per row activation (Byte)
system.mem_ctrl.dram.bytesPerActivate::896-1023            1      0.03%     99.62% # Bytes accessed per row activation (Byte)
system.mem_ctrl.dram.bytesPerActivate::1024-1151           12      0.38%    100.00% # Bytes accessed per row activation (Byte)
system.mem_ctrl.dram.bytesPerActivate::total         3184                       # Bytes accessed per row activation (Byte)
system.mem_ctrl.dram.bytesRead                 469504                       # Total bytes read (Byte)
system.mem_ctrl.dram.bytesWritten                   0                       # Total bytes written (Byte)
system.mem_ctrl.dram.avgRdBW                 1.246182                       # Average DRAM read bandwidth in MiBytes/s ((Byte/Second))
system.mem_ctrl.dram.avgWrBW                        0                       # Average DRAM write bandwidth in MiBytes/s ((Byte/Second))
system.mem_ctrl.dram.peakBW                  12800.00                       # Theoretical peak bandwidth in MiByte/s ((Byte/Second))
system.mem_ctrl.dram.busUtil                     0.01                       # Data bus utilization in percentage (Ratio)
system.mem_ctrl.dram.busUtilRead                 0.01                       # Data bus utilization in percentage for reads (Ratio)
system.mem_ctrl.dram.busUtilWrite                0.00                       # Data bus utilization in percentage for writes (Ratio)
system.mem_ctrl.dram.pageHitRate                56.57                       # Row buffer hit rate, read and write combined (Ratio)
system.mem_ctrl.dram.power_state.pwrStateResidencyTicks::UNDEFINED 376754039000                       # Cumulative time (in ticks) in various power states (Tick)
system.mem_ctrl.dram.rank0.actEnergy         12038040                       # Energy for activate commands per rank (pJ) (Joule)
system.mem_ctrl.dram.rank0.preEnergy          6394575                       # Energy for precharge commands per rank (pJ) (Joule)
system.mem_ctrl.dram.rank0.readEnergy        28117320                       # Energy for read commands per rank (pJ) (Joule)
system.mem_ctrl.dram.rank0.writeEnergy              0                       # Energy for write commands per rank (pJ) (Joule)
system.mem_ctrl.dram.rank0.refreshEnergy 29740585680.000004                       # Energy for refresh commands per rank (pJ) (Joule)
system.mem_ctrl.dram.rank0.actBackEnergy   9471940800                       # Energy for active background per rank (pJ) (Joule)
system.mem_ctrl.dram.rank0.preBackEnergy 136697180160                       # Energy for precharge background per rank (pJ) (Joule)
system.mem_ctrl.dram.rank0.actPowerDownEnergy            0                       # Energy for active power-down per rank (pJ) (Joule)
system.mem_ctrl.dram.rank0.prePowerDownEnergy            0                       # Energy for precharge power-down per rank (pJ) (Joule)
system.mem_ctrl.dram.rank0.selfRefreshEnergy            0                       # Energy for self refresh per rank (pJ) (Joule)
system.mem_ctrl.dram.rank0.totalEnergy   175956256575                       # Total energy per rank (pJ) (Joule)
system.mem_ctrl.dram.rank0.averagePower    467.032170                       # Core power per rank (mW) (Watt)
system.mem_ctrl.dram.rank0.totalIdleTime            0                       # Total Idle time Per DRAM Rank (Tick)
system.mem_ctrl.dram.rank0.pwrStateTime::IDLE 355295355250                       # Time in different power states (Tick)
system.mem_ctrl.dram.rank0.pwrStateTime::REF  12580620000                       # Time in different power states (Tick)
system.mem_ctrl.dram.rank0.pwrStateTime::SREF            0                       # Time in different power states (Tick)
system.mem_ctrl.dram.rank0.pwrStateTime::PRE_PDN            0                       # Time in different power states (Tick)
system.mem_ctrl.dram.rank0.pwrStateTime::ACT   8878063750                       # Time in different power states (Tick)
system.mem_ctrl.dram.rank0.pwrStateTime::ACT_PDN            0                       # Time in different power states (Tick)
system.mem_ctrl.dram.rank1.actEnergy         10710000                       # Energy for activate commands per rank (pJ) (Joule)
system.mem_ctrl.dram.rank1.preEnergy          5688705                       # Energy for precharge commands per rank (pJ) (Joule)
system.mem_ctrl.dram.rank1.readEnergy        24261720                       # Energy for read commands per rank (pJ) (Joule)
system.mem_ctrl.dram.rank1.writeEnergy              0                       # Energy for write commands per rank (pJ) (Joule)
system.mem_ctrl.dram.rank1.refreshEnergy 29740585680.000004                       # Energy for refresh commands per rank (pJ) (Joule)
system.mem_ctrl.dram.rank1.actBackEnergy   9172547160                       # Energy for active background per rank (pJ) (Joule)
system.mem_ctrl.dram.rank1.preBackEnergy 136949301120                       # Energy for precharge background per rank (pJ) (Joule)
system.mem_ctrl.dram.rank1.actPowerDownEnergy            0                       # Energy for active power-down per rank (pJ) (Joule)
system.mem_ctrl.dram.rank1.prePowerDownEnergy            0                       # Energy for precharge power-down per rank (pJ) (Joule)
system.mem_ctrl.dram.rank1.selfRefreshEnergy            0                       # Energy for self refresh per rank (pJ) (Joule)
system.mem_ctrl.dram.rank1.totalEnergy   175903094385                       # Total energy per rank (pJ) (Joule)
system.mem_ctrl.dram.rank1.averagePower    466.891065                       # Core power per rank (mW) (Watt)
system.mem_ctrl.dram.rank1.totalIdleTime            0                       # Total Idle time Per DRAM Rank (Tick)
system.mem_ctrl.dram.rank1.pwrStateTime::IDLE 355953580000                       # Time in different power states (Tick)
system.mem_ctrl.dram.rank1.pwrStateTime::REF  12580620000                       # Time in different power states (Tick)
system.mem_ctrl.dram.rank1.pwrStateTime::SREF            0                       # Time in different power states (Tick)
system.mem_ctrl.dram.rank1.pwrStateTime::PRE_PDN            0                       # Time in different power states (Tick)
system.mem_ctrl.dram.rank1.pwrStateTime::ACT   8219839000                       # Time in different power states (Tick)
system.mem_ctrl.dram.rank1.pwrStateTime::ACT_PDN            0                       # Time in different power states (Tick)
system.mem_ctrl.power_state.pwrStateResidencyTicks::UNDEFINED 376754039000                       # Cumulative time (in ticks) in various power states (Tick)
system.membus.transDist::ReadResp                 827                       # Transaction distribution (Count)
system.membus.transDist::WritebackDirty            31                       # Transaction distribution (Count)
system.membus.transDist::CleanEvict               151                       # Transaction distribution (Count)
system.membus.transDist::ReadExReq               6523                       # Transaction distribution (Count)
system.membus.transDist::ReadExResp              6523                       # Transaction distribution (Count)
system.membus.transDist::ReadSharedReq            827                       # Transaction distribution (Count)
system.membus.pktCount_system.l3cache.mem_side_port::system.mem_ctrl.port        14882                       # Packet count per connected requestor and responder (Count)
system.membus.pktCount::total                   14882                       # Packet count per connected requestor and responder (Count)
system.membus.pktSize_system.l3cache.mem_side_port::system.mem_ctrl.port       472384                       # Cumulative packet size per connected requestor and responder (Byte)
system.membus.pktSize::total                   472384                       # Cumulative packet size per connected requestor and responder (Byte)
system.membus.snoops                                0                       # Total snoops (Count)
system.membus.snoopTraffic                          0                       # Total snoop traffic (Byte)
system.membus.snoopFanout::samples               7350                       # Request fanout histogram (Count)
system.membus.snoopFanout::mean                     0                       # Request fanout histogram (Count)
system.membus.snoopFanout::stdev                    0                       # Request fanout histogram (Count)
system.membus.snoopFanout::underflows               0      0.00%      0.00% # Request fanout histogram (Count)
system.membus.snoopFanout::0                     7350    100.00%    100.00% # Request fanout histogram (Count)
system.membus.snoopFanout::1                        0      0.00%    100.00% # Request fanout histogram (Count)
system.membus.snoopFanout::overflows                0      0.00%    100.00% # Request fanout histogram (Count)
system.membus.snoopFanout::min_value                0                       # Request fanout histogram (Count)
system.membus.snoopFanout::max_value                0                       # Request fanout histogram (Count)
system.membus.snoopFanout::total                 7350                       # Request fanout histogram (Count)
system.membus.power_state.pwrStateResidencyTicks::UNDEFINED 376754039000                       # Cumulative time (in ticks) in various power states (Tick)
system.membus.reqLayer0.occupancy             7656000                       # Layer occupancy (ticks) (Tick)
system.membus.reqLayer0.utilization               0.0                       # Layer utilization (Ratio)
system.membus.respLayer0.occupancy           39397750                       # Layer occupancy (ticks) (Tick)
system.membus.respLayer0.utilization              0.0                       # Layer utilization (Ratio)
system.membus.snoop_filter.totRequests           7532                       # Total number of requests made to the snoop filter. (Count)
system.membus.snoop_filter.hitSingleRequests          182                       # Number of requests hitting in the snoop filter with a single holder of the requested data. (Count)
system.membus.snoop_filter.hitMultiRequests            0                       # Number of requests hitting in the snoop filter with multiple (>1) holders of the requested data. (Count)
system.membus.snoop_filter.totSnoops                0                       # Total number of snoops made to the snoop filter. (Count)
system.membus.snoop_filter.hitSingleSnoops            0                       # Number of snoops hitting in the snoop filter with a single holder of the requested data. (Count)
system.membus.snoop_filter.hitMultiSnoops            0                       # Number of snoops hitting in the snoop filter with multiple (>1) holders of the requested data. (Count)
system.workload.inst.arm                            0                       # number of arm instructions executed (Count)
system.workload.inst.quiesce                        0                       # number of quiesce instructions executed (Count)

---------- End Simulation Statistics   ----------
