
---------- Begin Simulation Statistics ----------
simSeconds                                   0.931198                       # Number of seconds simulated (Second)
simTicks                                 931198021000                       # Number of ticks simulated (Tick)
finalTick                                931198021000                       # Number of ticks from beginning of simulation (restored from checkpoints and never reset) (Tick)
simFreq                                  1000000000000                       # The number of ticks per simulated second ((Tick/Second))
hostSeconds                                    175.10                       # Real time elapsed on the host (Second)
hostTickRate                               5318192922                       # The number of ticks simulated per host second (ticks/s) ((Tick/Second))
hostMemory                                    8571060                       # Number of bytes of host memory used (Byte)
simInsts                                    261886465                       # Number of instructions simulated (Count)
simOps                                      261886465                       # Number of ops (including micro ops) simulated (Count)
hostInstRate                                  1495667                       # Simulator instruction rate (inst/s) ((Count/Second))
hostOpRate                                    1495667                       # Simulator op (including micro ops) rate (op/s) ((Count/Second))
system.clk_domain.clock                          1000                       # Clock period in ticks (Tick)
system.clk_domain.voltage_domain.voltage            1                       # Voltage in Volts (Volt)
system.cpu.numCycles                        931198021                       # Number of cpu cycles simulated (Cycle)
system.cpu.numWorkItemsStarted                      0                       # Number of work items this cpu started (Count)
system.cpu.numWorkItemsCompleted                    0                       # Number of work items this cpu completed (Count)
system.cpu.dcache.demandHits::cpu.data       90152971                       # number of demand (read+write) hits (Count)
system.cpu.dcache.demandHits::total          90152971                       # number of demand (read+write) hits (Count)
system.cpu.dcache.overallHits::cpu.data      90152971                       # number of overall hits (Count)
system.cpu.dcache.overallHits::total         90152971                       # number of overall hits (Count)
system.cpu.dcache.demandMisses::cpu.data      6434531                       # number of demand (read+write) misses (Count)
system.cpu.dcache.demandMisses::total         6434531                       # number of demand (read+write) misses (Count)
system.cpu.dcache.overallMisses::cpu.data      6434531                       # number of overall misses (Count)
system.cpu.dcache.overallMisses::total        6434531                       # number of overall misses (Count)
system.cpu.dcache.demandMissLatency::cpu.data 227017722000                       # number of demand (read+write) miss ticks (Tick)
system.cpu.dcache.demandMissLatency::total 227017722000                       # number of demand (read+write) miss ticks (Tick)
system.cpu.dcache.overallMissLatency::cpu.data 227017722000                       # number of overall miss ticks (Tick)
system.cpu.dcache.overallMissLatency::total 227017722000                       # number of overall miss ticks (Tick)
system.cpu.dcache.demandAccesses::cpu.data     96587502                       # number of demand (read+write) accesses (Count)
system.cpu.dcache.demandAccesses::total      96587502                       # number of demand (read+write) accesses (Count)
system.cpu.dcache.overallAccesses::cpu.data     96587502                       # number of overall (read+write) accesses (Count)
system.cpu.dcache.overallAccesses::total     96587502                       # number of overall (read+write) accesses (Count)
system.cpu.dcache.demandMissRate::cpu.data     0.066619                       # miss rate for demand accesses (Ratio)
system.cpu.dcache.demandMissRate::total      0.066619                       # miss rate for demand accesses (Ratio)
system.cpu.dcache.overallMissRate::cpu.data     0.066619                       # miss rate for overall accesses (Ratio)
system.cpu.dcache.overallMissRate::total     0.066619                       # miss rate for overall accesses (Ratio)
system.cpu.dcache.demandAvgMissLatency::cpu.data 35281.160663                       # average overall miss latency ((Cycle/Count))
system.cpu.dcache.demandAvgMissLatency::total 35281.160663                       # average overall miss latency ((Cycle/Count))
system.cpu.dcache.overallAvgMissLatency::cpu.data 35281.160663                       # average overall miss latency ((Cycle/Count))
system.cpu.dcache.overallAvgMissLatency::total 35281.160663                       # average overall miss latency ((Cycle/Count))
system.cpu.dcache.blockedCycles::no_mshrs            0                       # number of cycles access was blocked (Cycle)
system.cpu.dcache.blockedCycles::no_targets            0                       # number of cycles access was blocked (Cycle)
system.cpu.dcache.blockedCauses::no_mshrs            0                       # number of times access was blocked (Count)
system.cpu.dcache.blockedCauses::no_targets            0                       # number of times access was blocked (Count)
system.cpu.dcache.avgBlocked::no_mshrs            nan                       # average number of cycles each access was blocked ((Cycle/Count))
system.cpu.dcache.avgBlocked::no_targets          nan                       # average number of cycles each access was blocked ((Cycle/Count))
system.cpu.dcache.writebacks::writebacks      5475051                       # number of writebacks (Count)
system.cpu.dcache.writebacks::total           5475051                       # number of writebacks (Count)
system.cpu.dcache.demandMshrMisses::cpu.data      6434531                       # number of demand (read+write) MSHR misses (Count)
system.cpu.dcache.demandMshrMisses::total      6434531                       # number of demand (read+write) MSHR misses (Count)
system.cpu.dcache.overallMshrMisses::cpu.data      6434531                       # number of overall MSHR misses (Count)
system.cpu.dcache.overallMshrMisses::total      6434531                       # number of overall MSHR misses (Count)
system.cpu.dcache.demandMshrMissLatency::cpu.data 214148660000                       # number of demand (read+write) MSHR miss ticks (Tick)
system.cpu.dcache.demandMshrMissLatency::total 214148660000                       # number of demand (read+write) MSHR miss ticks (Tick)
system.cpu.dcache.overallMshrMissLatency::cpu.data 214148660000                       # number of overall MSHR miss ticks (Tick)
system.cpu.dcache.overallMshrMissLatency::total 214148660000                       # number of overall MSHR miss ticks (Tick)
system.cpu.dcache.demandMshrMissRate::cpu.data     0.066619                       # mshr miss ratio for demand accesses (Ratio)
system.cpu.dcache.demandMshrMissRate::total     0.066619                       # mshr miss ratio for demand accesses (Ratio)
system.cpu.dcache.overallMshrMissRate::cpu.data     0.066619                       # mshr miss ratio for overall accesses (Ratio)
system.cpu.dcache.overallMshrMissRate::total     0.066619                       # mshr miss ratio for overall accesses (Ratio)
system.cpu.dcache.demandAvgMshrMissLatency::cpu.data 33281.160663                       # average overall mshr miss latency ((Cycle/Count))
system.cpu.dcache.demandAvgMshrMissLatency::total 33281.160663                       # average overall mshr miss latency ((Cycle/Count))
system.cpu.dcache.overallAvgMshrMissLatency::cpu.data 33281.160663                       # average overall mshr miss latency ((Cycle/Count))
system.cpu.dcache.overallAvgMshrMissLatency::total 33281.160663                       # average overall mshr miss latency ((Cycle/Count))
system.cpu.dcache.replacements                5760342                       # number of replacements (Count)
system.cpu.dcache.ReadReq.hits::cpu.data     55527962                       # number of ReadReq hits (Count)
system.cpu.dcache.ReadReq.hits::total        55527962                       # number of ReadReq hits (Count)
system.cpu.dcache.ReadReq.misses::cpu.data      4470081                       # number of ReadReq misses (Count)
system.cpu.dcache.ReadReq.misses::total       4470081                       # number of ReadReq misses (Count)
system.cpu.dcache.ReadReq.missLatency::cpu.data 157046672000                       # number of ReadReq miss ticks (Tick)
system.cpu.dcache.ReadReq.missLatency::total 157046672000                       # number of ReadReq miss ticks (Tick)
system.cpu.dcache.ReadReq.accesses::cpu.data     59998043                       # number of ReadReq accesses(hits+misses) (Count)
system.cpu.dcache.ReadReq.accesses::total     59998043                       # number of ReadReq accesses(hits+misses) (Count)
system.cpu.dcache.ReadReq.missRate::cpu.data     0.074504                       # miss rate for ReadReq accesses (Ratio)
system.cpu.dcache.ReadReq.missRate::total     0.074504                       # miss rate for ReadReq accesses (Ratio)
system.cpu.dcache.ReadReq.avgMissLatency::cpu.data 35132.847033                       # average ReadReq miss latency ((Tick/Count))
system.cpu.dcache.ReadReq.avgMissLatency::total 35132.847033                       # average ReadReq miss latency ((Tick/Count))
system.cpu.dcache.ReadReq.mshrMisses::cpu.data      4470081                       # number of ReadReq MSHR misses (Count)
system.cpu.dcache.ReadReq.mshrMisses::total      4470081                       # number of ReadReq MSHR misses (Count)
system.cpu.dcache.ReadReq.mshrMissLatency::cpu.data 148106510000                       # number of ReadReq MSHR miss ticks (Tick)
system.cpu.dcache.ReadReq.mshrMissLatency::total 148106510000                       # number of ReadReq MSHR miss ticks (Tick)
system.cpu.dcache.ReadReq.mshrMissRate::cpu.data     0.074504                       # mshr miss rate for ReadReq accesses (Ratio)
system.cpu.dcache.ReadReq.mshrMissRate::total     0.074504                       # mshr miss rate for ReadReq accesses (Ratio)
system.cpu.dcache.ReadReq.avgMshrMissLatency::cpu.data 33132.847033                       # average ReadReq mshr miss latency ((Tick/Count))
system.cpu.dcache.ReadReq.avgMshrMissLatency::total 33132.847033                       # average ReadReq mshr miss latency ((Tick/Count))
system.cpu.dcache.WriteReq.hits::cpu.data     34625009                       # number of WriteReq hits (Count)
system.cpu.dcache.WriteReq.hits::total       34625009                       # number of WriteReq hits (Count)
system.cpu.dcache.WriteReq.misses::cpu.data      1964450                       # number of WriteReq misses (Count)
system.cpu.dcache.WriteReq.misses::total      1964450                       # number of WriteReq misses (Count)
system.cpu.dcache.WriteReq.missLatency::cpu.data  69971050000                       # number of WriteReq miss ticks (Tick)
system.cpu.dcache.WriteReq.missLatency::total  69971050000                       # number of WriteReq miss ticks (Tick)
system.cpu.dcache.WriteReq.accesses::cpu.data     36589459                       # number of WriteReq accesses(hits+misses) (Count)
system.cpu.dcache.WriteReq.accesses::total     36589459                       # number of WriteReq accesses(hits+misses) (Count)
system.cpu.dcache.WriteReq.missRate::cpu.data     0.053689                       # miss rate for WriteReq accesses (Ratio)
system.cpu.dcache.WriteReq.missRate::total     0.053689                       # miss rate for WriteReq accesses (Ratio)
system.cpu.dcache.WriteReq.avgMissLatency::cpu.data 35618.646440                       # average WriteReq miss latency ((Tick/Count))
system.cpu.dcache.WriteReq.avgMissLatency::total 35618.646440                       # average WriteReq miss latency ((Tick/Count))
system.cpu.dcache.WriteReq.mshrMisses::cpu.data      1964450                       # number of WriteReq MSHR misses (Count)
system.cpu.dcache.WriteReq.mshrMisses::total      1964450                       # number of WriteReq MSHR misses (Count)
system.cpu.dcache.WriteReq.mshrMissLatency::cpu.data  66042150000                       # number of WriteReq MSHR miss ticks (Tick)
system.cpu.dcache.WriteReq.mshrMissLatency::total  66042150000                       # number of WriteReq MSHR miss ticks (Tick)
system.cpu.dcache.WriteReq.mshrMissRate::cpu.data     0.053689                       # mshr miss rate for WriteReq accesses (Ratio)
system.cpu.dcache.WriteReq.mshrMissRate::total     0.053689                       # mshr miss rate for WriteReq accesses (Ratio)
system.cpu.dcache.WriteReq.avgMshrMissLatency::cpu.data 33618.646440                       # average WriteReq mshr miss latency ((Tick/Count))
system.cpu.dcache.WriteReq.avgMshrMissLatency::total 33618.646440                       # average WriteReq mshr miss latency ((Tick/Count))
system.cpu.dcache.power_state.pwrStateResidencyTicks::UNDEFINED 931198021000                       # Cumulative time (in ticks) in various power states (Tick)
system.cpu.dcache.tags.tagsInUse           511.810691                       # Average ticks per tags in use ((Tick/Count))
system.cpu.dcache.tags.totalRefs             96587502                       # Total number of references to valid blocks. (Count)
system.cpu.dcache.tags.sampledRefs            5760854                       # Sample count of references to valid blocks. (Count)
system.cpu.dcache.tags.avgRefs              16.766178                       # Average number of references to valid blocks. ((Count/Count))
system.cpu.dcache.tags.warmupTick              306000                       # The tick when the warmup percentage was hit. (Tick)
system.cpu.dcache.tags.occupancies::cpu.data   511.810691                       # Average occupied blocks per tick, per requestor ((Count/Tick))
system.cpu.dcache.tags.avgOccs::cpu.data     0.999630                       # Average percentage of cache occupancy ((Ratio/Tick))
system.cpu.dcache.tags.avgOccs::total        0.999630                       # Average percentage of cache occupancy ((Ratio/Tick))
system.cpu.dcache.tags.occupanciesTaskId::1024          512                       # Occupied blocks per task id (Count)
system.cpu.dcache.tags.ageTaskId_1024::0           17                       # Occupied blocks per task id, per block age (Count)
system.cpu.dcache.tags.ageTaskId_1024::1          217                       # Occupied blocks per task id, per block age (Count)
system.cpu.dcache.tags.ageTaskId_1024::2          278                       # Occupied blocks per task id, per block age (Count)
system.cpu.dcache.tags.ratioOccsTaskId::1024            1                       # Ratio of occupied blocks and all blocks, per task id (Ratio)
system.cpu.dcache.tags.tagAccesses          102348356                       # Number of tag accesses (Count)
system.cpu.dcache.tags.dataAccesses         102348356                       # Number of data accesses (Count)
system.cpu.dcache.tags.power_state.pwrStateResidencyTicks::UNDEFINED 931198021000                       # Cumulative time (in ticks) in various power states (Tick)
system.cpu.exec_context.thread_0.numInsts    261886465                       # Number of instructions committed (Count)
system.cpu.exec_context.thread_0.numOps     261886465                       # Number of ops (including micro ops) committed (Count)
system.cpu.exec_context.thread_0.numIntAluAccesses    258108852                       # Number of integer alu accesses (Count)
system.cpu.exec_context.thread_0.numFpAluAccesses           18                       # Number of float alu accesses (Count)
system.cpu.exec_context.thread_0.numVecAluAccesses            0                       # Number of vector alu accesses (Count)
system.cpu.exec_context.thread_0.numCallsReturns      2258319                       # Number of times a function call or return occured (Count)
system.cpu.exec_context.thread_0.numCondCtrlInsts     34562482                       # Number of instructions that are conditional controls (Count)
system.cpu.exec_context.thread_0.numIntInsts    258108852                       # Number of integer instructions (Count)
system.cpu.exec_context.thread_0.numFpInsts           18                       # Number of float instructions (Count)
system.cpu.exec_context.thread_0.numVecInsts            0                       # Number of vector instructions (Count)
system.cpu.exec_context.thread_0.numIntRegReads    474563446                       # Number of times the integer registers were read (Count)
system.cpu.exec_context.thread_0.numIntRegWrites    231335006                       # Number of times the integer registers were written (Count)
system.cpu.exec_context.thread_0.numFpRegReads           18                       # Number of times the floating registers were read (Count)
system.cpu.exec_context.thread_0.numFpRegWrites            0                       # Number of times the floating registers were written (Count)
system.cpu.exec_context.thread_0.numVecRegReads            0                       # Number of times the vector registers were read (Count)
system.cpu.exec_context.thread_0.numVecRegWrites            0                       # Number of times the vector registers were written (Count)
system.cpu.exec_context.thread_0.numVecPredRegReads            0                       # Number of times the predicate registers were read (Count)
system.cpu.exec_context.thread_0.numVecPredRegWrites            0                       # Number of times the predicate registers were written (Count)
system.cpu.exec_context.thread_0.numMiscRegReads            0                       # Number of times the Misc registers were read (Count)
system.cpu.exec_context.thread_0.numMiscRegWrites            0                       # Number of times the Misc registers were written (Count)
system.cpu.exec_context.thread_0.numMemRefs     96588692                       # Number of memory refs (Count)
system.cpu.exec_context.thread_0.numLoadInsts     59998042                       # Number of load instructions (Count)
system.cpu.exec_context.thread_0.numStoreInsts     36590650                       # Number of store instructions (Count)
system.cpu.exec_context.thread_0.numIdleCycles     0.001000                       # Number of idle cycles (Cycle)
system.cpu.exec_context.thread_0.numBusyCycles 931198020.999000                       # Number of busy cycles (Cycle)
system.cpu.exec_context.thread_0.notIdleFraction     1.000000                       # Percentage of non-idle cycles (Ratio)
system.cpu.exec_context.thread_0.idleFraction     0.000000                       # Percentage of idle cycles (Ratio)
system.cpu.exec_context.thread_0.numBranches     40599267                       # Number of branches fetched (Count)
system.cpu.exec_context.thread_0.statExecutedInstType::No_OpClass            0      0.00%      0.00% # Class of executed instruction. (Count)
system.cpu.exec_context.thread_0.statExecutedInstType::IntAlu    165299019     63.12%     63.12% # Class of executed instruction. (Count)
system.cpu.exec_context.thread_0.statExecutedInstType::IntMult            0      0.00%     63.12% # Class of executed instruction. (Count)
system.cpu.exec_context.thread_0.statExecutedInstType::IntDiv            0      0.00%     63.12% # Class of executed instruction. (Count)
system.cpu.exec_context.thread_0.statExecutedInstType::FloatAdd            0      0.00%     63.12% # Class of executed instruction. (Count)
system.cpu.exec_context.thread_0.statExecutedInstType::FloatCmp            0      0.00%     63.12% # Class of executed instruction. (Count)
system.cpu.exec_context.thread_0.statExecutedInstType::FloatCvt            0      0.00%     63.12% # Class of executed instruction. (Count)
system.cpu.exec_context.thread_0.statExecutedInstType::FloatMult            0      0.00%     63.12% # Class of executed instruction. (Count)
system.cpu.exec_context.thread_0.statExecutedInstType::FloatMultAcc            0      0.00%     63.12% # Class of executed instruction. (Count)
system.cpu.exec_context.thread_0.statExecutedInstType::FloatDiv            0      0.00%     63.12% # Class of executed instruction. (Count)
system.cpu.exec_context.thread_0.statExecutedInstType::FloatMisc            0      0.00%     63.12% # Class of executed instruction. (Count)
system.cpu.exec_context.thread_0.statExecutedInstType::FloatSqrt            0      0.00%     63.12% # Class of executed instruction. (Count)
system.cpu.exec_context.thread_0.statExecutedInstType::SimdAdd            0      0.00%     63.12% # Class of executed instruction. (Count)
system.cpu.exec_context.thread_0.statExecutedInstType::SimdAddAcc            0      0.00%     63.12% # Class of executed instruction. (Count)
system.cpu.exec_context.thread_0.statExecutedInstType::SimdAlu            0      0.00%     63.12% # Class of executed instruction. (Count)
system.cpu.exec_context.thread_0.statExecutedInstType::SimdCmp            0      0.00%     63.12% # Class of executed instruction. (Count)
system.cpu.exec_context.thread_0.statExecutedInstType::SimdCvt            0      0.00%     63.12% # Class of executed instruction. (Count)
system.cpu.exec_context.thread_0.statExecutedInstType::SimdMisc            0      0.00%     63.12% # Class of executed instruction. (Count)
system.cpu.exec_context.thread_0.statExecutedInstType::SimdMult            0      0.00%     63.12% # Class of executed instruction. (Count)
system.cpu.exec_context.thread_0.statExecutedInstType::SimdMultAcc            0      0.00%     63.12% # Class of executed instruction. (Count)
system.cpu.exec_context.thread_0.statExecutedInstType::SimdShift            0      0.00%     63.12% # Class of executed instruction. (Count)
system.cpu.exec_context.thread_0.statExecutedInstType::SimdShiftAcc            0      0.00%     63.12% # Class of executed instruction. (Count)
system.cpu.exec_context.thread_0.statExecutedInstType::SimdDiv            0      0.00%     63.12% # Class of executed instruction. (Count)
system.cpu.exec_context.thread_0.statExecutedInstType::SimdSqrt            0      0.00%     63.12% # Class of executed instruction. (Count)
system.cpu.exec_context.thread_0.statExecutedInstType::SimdFloatAdd            0      0.00%     63.12% # Class of executed instruction. (Count)
system.cpu.exec_context.thread_0.statExecutedInstType::SimdFloatAlu            0      0.00%     63.12% # Class of executed instruction. (Count)
system.cpu.exec_context.thread_0.statExecutedInstType::SimdFloatCmp            0      0.00%     63.12% # Class of executed instruction. (Count)
system.cpu.exec_context.thread_0.statExecutedInstType::SimdFloatCvt            0      0.00%     63.12% # Class of executed instruction. (Count)
system.cpu.exec_context.thread_0.statExecutedInstType::SimdFloatDiv            0      0.00%     63.12% # Class of executed instruction. (Count)
system.cpu.exec_context.thread_0.statExecutedInstType::SimdFloatMisc            0      0.00%     63.12% # Class of executed instruction. (Count)
system.cpu.exec_context.thread_0.statExecutedInstType::SimdFloatMult            0      0.00%     63.12% # Class of executed instruction. (Count)
system.cpu.exec_context.thread_0.statExecutedInstType::SimdFloatMultAcc            0      0.00%     63.12% # Class of executed instruction. (Count)
system.cpu.exec_context.thread_0.statExecutedInstType::SimdFloatSqrt            0      0.00%     63.12% # Class of executed instruction. (Count)
system.cpu.exec_context.thread_0.statExecutedInstType::SimdReduceAdd            0      0.00%     63.12% # Class of executed instruction. (Count)
system.cpu.exec_context.thread_0.statExecutedInstType::SimdReduceAlu            0      0.00%     63.12% # Class of executed instruction. (Count)
system.cpu.exec_context.thread_0.statExecutedInstType::SimdReduceCmp            0      0.00%     63.12% # Class of executed instruction. (Count)
system.cpu.exec_context.thread_0.statExecutedInstType::SimdFloatReduceAdd            0      0.00%     63.12% # Class of executed instruction. (Count)
system.cpu.exec_context.thread_0.statExecutedInstType::SimdFloatReduceCmp            0      0.00%     63.12% # Class of executed instruction. (Count)
system.cpu.exec_context.thread_0.statExecutedInstType::SimdAes            0      0.00%     63.12% # Class of executed instruction. (Count)
system.cpu.exec_context.thread_0.statExecutedInstType::SimdAesMix            0      0.00%     63.12% # Class of executed instruction. (Count)
system.cpu.exec_context.thread_0.statExecutedInstType::SimdSha1Hash            0      0.00%     63.12% # Class of executed instruction. (Count)
system.cpu.exec_context.thread_0.statExecutedInstType::SimdSha1Hash2            0      0.00%     63.12% # Class of executed instruction. (Count)
system.cpu.exec_context.thread_0.statExecutedInstType::SimdSha256Hash            0      0.00%     63.12% # Class of executed instruction. (Count)
system.cpu.exec_context.thread_0.statExecutedInstType::SimdSha256Hash2            0      0.00%     63.12% # Class of executed instruction. (Count)
system.cpu.exec_context.thread_0.statExecutedInstType::SimdShaSigma2            0      0.00%     63.12% # Class of executed instruction. (Count)
system.cpu.exec_context.thread_0.statExecutedInstType::SimdShaSigma3            0      0.00%     63.12% # Class of executed instruction. (Count)
system.cpu.exec_context.thread_0.statExecutedInstType::SimdPredAlu            0      0.00%     63.12% # Class of executed instruction. (Count)
system.cpu.exec_context.thread_0.statExecutedInstType::MemRead     59998042     22.91%     86.03% # Class of executed instruction. (Count)
system.cpu.exec_context.thread_0.statExecutedInstType::MemWrite     36590632     13.97%    100.00% # Class of executed instruction. (Count)
system.cpu.exec_context.thread_0.statExecutedInstType::FloatMemRead            0      0.00%    100.00% # Class of executed instruction. (Count)
system.cpu.exec_context.thread_0.statExecutedInstType::FloatMemWrite           18      0.00%    100.00% # Class of executed instruction. (Count)
system.cpu.exec_context.thread_0.statExecutedInstType::IprAccess            0      0.00%    100.00% # Class of executed instruction. (Count)
system.cpu.exec_context.thread_0.statExecutedInstType::InstPrefetch            0      0.00%    100.00% # Class of executed instruction. (Count)
system.cpu.exec_context.thread_0.statExecutedInstType::total    261887711                       # Class of executed instruction. (Count)
system.cpu.icache.demandHits::cpu.inst      261886780                       # number of demand (read+write) hits (Count)
system.cpu.icache.demandHits::total         261886780                       # number of demand (read+write) hits (Count)
system.cpu.icache.overallHits::cpu.inst     261886780                       # number of overall hits (Count)
system.cpu.icache.overallHits::total        261886780                       # number of overall hits (Count)
system.cpu.icache.demandMisses::cpu.inst          931                       # number of demand (read+write) misses (Count)
system.cpu.icache.demandMisses::total             931                       # number of demand (read+write) misses (Count)
system.cpu.icache.overallMisses::cpu.inst          931                       # number of overall misses (Count)
system.cpu.icache.overallMisses::total            931                       # number of overall misses (Count)
system.cpu.icache.demandMissLatency::cpu.inst    100950000                       # number of demand (read+write) miss ticks (Tick)
system.cpu.icache.demandMissLatency::total    100950000                       # number of demand (read+write) miss ticks (Tick)
system.cpu.icache.overallMissLatency::cpu.inst    100950000                       # number of overall miss ticks (Tick)
system.cpu.icache.overallMissLatency::total    100950000                       # number of overall miss ticks (Tick)
system.cpu.icache.demandAccesses::cpu.inst    261887711                       # number of demand (read+write) accesses (Count)
system.cpu.icache.demandAccesses::total     261887711                       # number of demand (read+write) accesses (Count)
system.cpu.icache.overallAccesses::cpu.inst    261887711                       # number of overall (read+write) accesses (Count)
system.cpu.icache.overallAccesses::total    261887711                       # number of overall (read+write) accesses (Count)
system.cpu.icache.demandMissRate::cpu.inst     0.000004                       # miss rate for demand accesses (Ratio)
system.cpu.icache.demandMissRate::total      0.000004                       # miss rate for demand accesses (Ratio)
system.cpu.icache.overallMissRate::cpu.inst     0.000004                       # miss rate for overall accesses (Ratio)
system.cpu.icache.overallMissRate::total     0.000004                       # miss rate for overall accesses (Ratio)
system.cpu.icache.demandAvgMissLatency::cpu.inst 108431.793770                       # average overall miss latency ((Cycle/Count))
system.cpu.icache.demandAvgMissLatency::total 108431.793770                       # average overall miss latency ((Cycle/Count))
system.cpu.icache.overallAvgMissLatency::cpu.inst 108431.793770                       # average overall miss latency ((Cycle/Count))
system.cpu.icache.overallAvgMissLatency::total 108431.793770                       # average overall miss latency ((Cycle/Count))
system.cpu.icache.blockedCycles::no_mshrs            0                       # number of cycles access was blocked (Cycle)
system.cpu.icache.blockedCycles::no_targets            0                       # number of cycles access was blocked (Cycle)
system.cpu.icache.blockedCauses::no_mshrs            0                       # number of times access was blocked (Count)
system.cpu.icache.blockedCauses::no_targets            0                       # number of times access was blocked (Count)
system.cpu.icache.avgBlocked::no_mshrs            nan                       # average number of cycles each access was blocked ((Cycle/Count))
system.cpu.icache.avgBlocked::no_targets          nan                       # average number of cycles each access was blocked ((Cycle/Count))
system.cpu.icache.demandMshrMisses::cpu.inst          931                       # number of demand (read+write) MSHR misses (Count)
system.cpu.icache.demandMshrMisses::total          931                       # number of demand (read+write) MSHR misses (Count)
system.cpu.icache.overallMshrMisses::cpu.inst          931                       # number of overall MSHR misses (Count)
system.cpu.icache.overallMshrMisses::total          931                       # number of overall MSHR misses (Count)
system.cpu.icache.demandMshrMissLatency::cpu.inst     99088000                       # number of demand (read+write) MSHR miss ticks (Tick)
system.cpu.icache.demandMshrMissLatency::total     99088000                       # number of demand (read+write) MSHR miss ticks (Tick)
system.cpu.icache.overallMshrMissLatency::cpu.inst     99088000                       # number of overall MSHR miss ticks (Tick)
system.cpu.icache.overallMshrMissLatency::total     99088000                       # number of overall MSHR miss ticks (Tick)
system.cpu.icache.demandMshrMissRate::cpu.inst     0.000004                       # mshr miss ratio for demand accesses (Ratio)
system.cpu.icache.demandMshrMissRate::total     0.000004                       # mshr miss ratio for demand accesses (Ratio)
system.cpu.icache.overallMshrMissRate::cpu.inst     0.000004                       # mshr miss ratio for overall accesses (Ratio)
system.cpu.icache.overallMshrMissRate::total     0.000004                       # mshr miss ratio for overall accesses (Ratio)
system.cpu.icache.demandAvgMshrMissLatency::cpu.inst 106431.793770                       # average overall mshr miss latency ((Cycle/Count))
system.cpu.icache.demandAvgMshrMissLatency::total 106431.793770                       # average overall mshr miss latency ((Cycle/Count))
system.cpu.icache.overallAvgMshrMissLatency::cpu.inst 106431.793770                       # average overall mshr miss latency ((Cycle/Count))
system.cpu.icache.overallAvgMshrMissLatency::total 106431.793770                       # average overall mshr miss latency ((Cycle/Count))
system.cpu.icache.replacements                    695                       # number of replacements (Count)
system.cpu.icache.ReadReq.hits::cpu.inst    261886780                       # number of ReadReq hits (Count)
system.cpu.icache.ReadReq.hits::total       261886780                       # number of ReadReq hits (Count)
system.cpu.icache.ReadReq.misses::cpu.inst          931                       # number of ReadReq misses (Count)
system.cpu.icache.ReadReq.misses::total           931                       # number of ReadReq misses (Count)
system.cpu.icache.ReadReq.missLatency::cpu.inst    100950000                       # number of ReadReq miss ticks (Tick)
system.cpu.icache.ReadReq.missLatency::total    100950000                       # number of ReadReq miss ticks (Tick)
system.cpu.icache.ReadReq.accesses::cpu.inst    261887711                       # number of ReadReq accesses(hits+misses) (Count)
system.cpu.icache.ReadReq.accesses::total    261887711                       # number of ReadReq accesses(hits+misses) (Count)
system.cpu.icache.ReadReq.missRate::cpu.inst     0.000004                       # miss rate for ReadReq accesses (Ratio)
system.cpu.icache.ReadReq.missRate::total     0.000004                       # miss rate for ReadReq accesses (Ratio)
system.cpu.icache.ReadReq.avgMissLatency::cpu.inst 108431.793770                       # average ReadReq miss latency ((Tick/Count))
system.cpu.icache.ReadReq.avgMissLatency::total 108431.793770                       # average ReadReq miss latency ((Tick/Count))
system.cpu.icache.ReadReq.mshrMisses::cpu.inst          931                       # number of ReadReq MSHR misses (Count)
system.cpu.icache.ReadReq.mshrMisses::total          931                       # number of ReadReq MSHR misses (Count)
system.cpu.icache.ReadReq.mshrMissLatency::cpu.inst     99088000                       # number of ReadReq MSHR miss ticks (Tick)
system.cpu.icache.ReadReq.mshrMissLatency::total     99088000                       # number of ReadReq MSHR miss ticks (Tick)
system.cpu.icache.ReadReq.mshrMissRate::cpu.inst     0.000004                       # mshr miss rate for ReadReq accesses (Ratio)
system.cpu.icache.ReadReq.mshrMissRate::total     0.000004                       # mshr miss rate for ReadReq accesses (Ratio)
system.cpu.icache.ReadReq.avgMshrMissLatency::cpu.inst 106431.793770                       # average ReadReq mshr miss latency ((Tick/Count))
system.cpu.icache.ReadReq.avgMshrMissLatency::total 106431.793770                       # average ReadReq mshr miss latency ((Tick/Count))
system.cpu.icache.power_state.pwrStateResidencyTicks::UNDEFINED 931198021000                       # Cumulative time (in ticks) in various power states (Tick)
system.cpu.icache.tags.tagsInUse           226.440700                       # Average ticks per tags in use ((Tick/Count))
system.cpu.icache.tags.totalRefs            261887711                       # Total number of references to valid blocks. (Count)
system.cpu.icache.tags.sampledRefs                931                       # Sample count of references to valid blocks. (Count)
system.cpu.icache.tags.avgRefs           281297.219119                       # Average number of references to valid blocks. ((Count/Count))
system.cpu.icache.tags.warmupTick              149000                       # The tick when the warmup percentage was hit. (Tick)
system.cpu.icache.tags.occupancies::cpu.inst   226.440700                       # Average occupied blocks per tick, per requestor ((Count/Tick))
system.cpu.icache.tags.avgOccs::cpu.inst     0.884534                       # Average percentage of cache occupancy ((Ratio/Tick))
system.cpu.icache.tags.avgOccs::total        0.884534                       # Average percentage of cache occupancy ((Ratio/Tick))
system.cpu.icache.tags.occupanciesTaskId::1024          236                       # Occupied blocks per task id (Count)
system.cpu.icache.tags.ageTaskId_1024::0           38                       # Occupied blocks per task id, per block age (Count)
system.cpu.icache.tags.ageTaskId_1024::1           40                       # Occupied blocks per task id, per block age (Count)
system.cpu.icache.tags.ageTaskId_1024::4          158                       # Occupied blocks per task id, per block age (Count)
system.cpu.icache.tags.ratioOccsTaskId::1024     0.921875                       # Ratio of occupied blocks and all blocks, per task id (Ratio)
system.cpu.icache.tags.tagAccesses          261888642                       # Number of tag accesses (Count)
system.cpu.icache.tags.dataAccesses         261888642                       # Number of data accesses (Count)
system.cpu.icache.tags.power_state.pwrStateResidencyTicks::UNDEFINED 931198021000                       # Cumulative time (in ticks) in various power states (Tick)
system.cpu.power_state.pwrStateResidencyTicks::ON 931198021000                       # Cumulative time (in ticks) in various power states (Tick)
system.cpu.thread_0.numInsts                        0                       # Number of Instructions committed (Count)
system.cpu.thread_0.numOps                          0                       # Number of Ops committed (Count)
system.cpu.thread_0.numMemRefs                      0                       # Number of Memory References (Count)
system.cpu.workload.numSyscalls                    54                       # Number of system calls (Count)
system.l2bus.transDist::ReadResp              4471012                       # Transaction distribution (Count)
system.l2bus.transDist::WritebackDirty        6718966                       # Transaction distribution (Count)
system.l2bus.transDist::CleanEvict             286952                       # Transaction distribution (Count)
system.l2bus.transDist::UpgradeReq             673677                       # Transaction distribution (Count)
system.l2bus.transDist::UpgradeResp            673677                       # Transaction distribution (Count)
system.l2bus.transDist::ReadExReq             1290773                       # Transaction distribution (Count)
system.l2bus.transDist::ReadExResp            1290773                       # Transaction distribution (Count)
system.l2bus.transDist::ReadSharedReq         4471012                       # Transaction distribution (Count)
system.l2bus.pktCount_system.cpu.icache.mem_side_port::system.l2cache.cpu_side_port         2557                       # Packet count per connected requestor and responder (Count)
system.l2bus.pktCount_system.cpu.dcache.mem_side_port::system.l2cache.cpu_side_port     18629404                       # Packet count per connected requestor and responder (Count)
system.l2bus.pktCount::total                 18631961                       # Packet count per connected requestor and responder (Count)
system.l2bus.pktSize_system.cpu.icache.mem_side_port::system.l2cache.cpu_side_port        59584                       # Cumulative packet size per connected requestor and responder (Byte)
system.l2bus.pktSize_system.cpu.dcache.mem_side_port::system.l2cache.cpu_side_port    719097920                       # Cumulative packet size per connected requestor and responder (Byte)
system.l2bus.pktSize::total                 719157504                       # Cumulative packet size per connected requestor and responder (Byte)
system.l2bus.snoops                           1244881                       # Total snoops (Count)
system.l2bus.snoopTraffic                    79610560                       # Total snoop traffic (Byte)
system.l2bus.snoopFanout::samples             7680343                       # Request fanout histogram (Count)
system.l2bus.snoopFanout::mean               0.000082                       # Request fanout histogram (Count)
system.l2bus.snoopFanout::stdev              0.009042                       # Request fanout histogram (Count)
system.l2bus.snoopFanout::underflows                0      0.00%      0.00% # Request fanout histogram (Count)
system.l2bus.snoopFanout::0                   7679715     99.99%     99.99% # Request fanout histogram (Count)
system.l2bus.snoopFanout::1                       628      0.01%    100.00% # Request fanout histogram (Count)
system.l2bus.snoopFanout::2                         0      0.00%    100.00% # Request fanout histogram (Count)
system.l2bus.snoopFanout::overflows                 0      0.00%    100.00% # Request fanout histogram (Count)
system.l2bus.snoopFanout::min_value                 0                       # Request fanout histogram (Count)
system.l2bus.snoopFanout::max_value                 1                       # Request fanout histogram (Count)
system.l2bus.snoopFanout::total               7680343                       # Request fanout histogram (Count)
system.l2bus.power_state.pwrStateResidencyTicks::UNDEFINED 931198021000                       # Cumulative time (in ticks) in various power states (Tick)
system.l2bus.reqLayer0.occupancy          23146601000                       # Layer occupancy (ticks) (Tick)
system.l2bus.reqLayer0.utilization                0.0                       # Layer utilization (Ratio)
system.l2bus.respLayer0.occupancy             2793000                       # Layer occupancy (ticks) (Tick)
system.l2bus.respLayer0.utilization               0.0                       # Layer utilization (Ratio)
system.l2bus.respLayer1.occupancy         17956239000                       # Layer occupancy (ticks) (Tick)
system.l2bus.respLayer1.utilization               0.0                       # Layer utilization (Ratio)
system.l2bus.snoop_filter.totRequests        12196499                       # Total number of requests made to the snoop filter. (Count)
system.l2bus.snoop_filter.hitSingleRequests      6434714                       # Number of requests hitting in the snoop filter with a single holder of the requested data. (Count)
system.l2bus.snoop_filter.hitMultiRequests            2                       # Number of requests hitting in the snoop filter with multiple (>1) holders of the requested data. (Count)
system.l2bus.snoop_filter.totSnoops               626                       # Total number of snoops made to the snoop filter. (Count)
system.l2bus.snoop_filter.hitSingleSnoops          626                       # Number of snoops hitting in the snoop filter with a single holder of the requested data. (Count)
system.l2bus.snoop_filter.hitMultiSnoops            0                       # Number of snoops hitting in the snoop filter with multiple (>1) holders of the requested data. (Count)
system.l2cache.demandHits::cpu.inst               225                       # number of demand (read+write) hits (Count)
system.l2cache.demandHits::cpu.data           4512812                       # number of demand (read+write) hits (Count)
system.l2cache.demandHits::total              4513037                       # number of demand (read+write) hits (Count)
system.l2cache.overallHits::cpu.inst              225                       # number of overall hits (Count)
system.l2cache.overallHits::cpu.data          4512812                       # number of overall hits (Count)
system.l2cache.overallHits::total             4513037                       # number of overall hits (Count)
system.l2cache.demandMisses::cpu.inst             706                       # number of demand (read+write) misses (Count)
system.l2cache.demandMisses::cpu.data         1248042                       # number of demand (read+write) misses (Count)
system.l2cache.demandMisses::total            1248748                       # number of demand (read+write) misses (Count)
system.l2cache.overallMisses::cpu.inst            706                       # number of overall misses (Count)
system.l2cache.overallMisses::cpu.data        1248042                       # number of overall misses (Count)
system.l2cache.overallMisses::total           1248748                       # number of overall misses (Count)
system.l2cache.demandMissLatency::cpu.inst     91556000                       # number of demand (read+write) miss ticks (Tick)
system.l2cache.demandMissLatency::cpu.data  84784807000                       # number of demand (read+write) miss ticks (Tick)
system.l2cache.demandMissLatency::total   84876363000                       # number of demand (read+write) miss ticks (Tick)
system.l2cache.overallMissLatency::cpu.inst     91556000                       # number of overall miss ticks (Tick)
system.l2cache.overallMissLatency::cpu.data  84784807000                       # number of overall miss ticks (Tick)
system.l2cache.overallMissLatency::total  84876363000                       # number of overall miss ticks (Tick)
system.l2cache.demandAccesses::cpu.inst           931                       # number of demand (read+write) accesses (Count)
system.l2cache.demandAccesses::cpu.data       5760854                       # number of demand (read+write) accesses (Count)
system.l2cache.demandAccesses::total          5761785                       # number of demand (read+write) accesses (Count)
system.l2cache.overallAccesses::cpu.inst          931                       # number of overall (read+write) accesses (Count)
system.l2cache.overallAccesses::cpu.data      5760854                       # number of overall (read+write) accesses (Count)
system.l2cache.overallAccesses::total         5761785                       # number of overall (read+write) accesses (Count)
system.l2cache.demandMissRate::cpu.inst      0.758324                       # miss rate for demand accesses (Ratio)
system.l2cache.demandMissRate::cpu.data      0.216642                       # miss rate for demand accesses (Ratio)
system.l2cache.demandMissRate::total         0.216729                       # miss rate for demand accesses (Ratio)
system.l2cache.overallMissRate::cpu.inst     0.758324                       # miss rate for overall accesses (Ratio)
system.l2cache.overallMissRate::cpu.data     0.216642                       # miss rate for overall accesses (Ratio)
system.l2cache.overallMissRate::total        0.216729                       # miss rate for overall accesses (Ratio)
system.l2cache.demandAvgMissLatency::cpu.inst 129682.719547                       # average overall miss latency ((Cycle/Count))
system.l2cache.demandAvgMissLatency::cpu.data 67934.257821                       # average overall miss latency ((Cycle/Count))
system.l2cache.demandAvgMissLatency::total 67969.168319                       # average overall miss latency ((Cycle/Count))
system.l2cache.overallAvgMissLatency::cpu.inst 129682.719547                       # average overall miss latency ((Cycle/Count))
system.l2cache.overallAvgMissLatency::cpu.data 67934.257821                       # average overall miss latency ((Cycle/Count))
system.l2cache.overallAvgMissLatency::total 67969.168319                       # average overall miss latency ((Cycle/Count))
system.l2cache.blockedCycles::no_mshrs              0                       # number of cycles access was blocked (Cycle)
system.l2cache.blockedCycles::no_targets            0                       # number of cycles access was blocked (Cycle)
system.l2cache.blockedCauses::no_mshrs              0                       # number of times access was blocked (Count)
system.l2cache.blockedCauses::no_targets            0                       # number of times access was blocked (Count)
system.l2cache.avgBlocked::no_mshrs               nan                       # average number of cycles each access was blocked ((Cycle/Count))
system.l2cache.avgBlocked::no_targets             nan                       # average number of cycles each access was blocked ((Cycle/Count))
system.l2cache.writebacks::writebacks         1243915                       # number of writebacks (Count)
system.l2cache.writebacks::total              1243915                       # number of writebacks (Count)
system.l2cache.demandMshrMisses::cpu.inst          706                       # number of demand (read+write) MSHR misses (Count)
system.l2cache.demandMshrMisses::cpu.data      1248042                       # number of demand (read+write) MSHR misses (Count)
system.l2cache.demandMshrMisses::total        1248748                       # number of demand (read+write) MSHR misses (Count)
system.l2cache.overallMshrMisses::cpu.inst          706                       # number of overall MSHR misses (Count)
system.l2cache.overallMshrMisses::cpu.data      1248042                       # number of overall MSHR misses (Count)
system.l2cache.overallMshrMisses::total       1248748                       # number of overall MSHR misses (Count)
system.l2cache.demandMshrMissLatency::cpu.inst     77436000                       # number of demand (read+write) MSHR miss ticks (Tick)
system.l2cache.demandMshrMissLatency::cpu.data  59823967000                       # number of demand (read+write) MSHR miss ticks (Tick)
system.l2cache.demandMshrMissLatency::total  59901403000                       # number of demand (read+write) MSHR miss ticks (Tick)
system.l2cache.overallMshrMissLatency::cpu.inst     77436000                       # number of overall MSHR miss ticks (Tick)
system.l2cache.overallMshrMissLatency::cpu.data  59823967000                       # number of overall MSHR miss ticks (Tick)
system.l2cache.overallMshrMissLatency::total  59901403000                       # number of overall MSHR miss ticks (Tick)
system.l2cache.demandMshrMissRate::cpu.inst     0.758324                       # mshr miss ratio for demand accesses (Ratio)
system.l2cache.demandMshrMissRate::cpu.data     0.216642                       # mshr miss ratio for demand accesses (Ratio)
system.l2cache.demandMshrMissRate::total     0.216729                       # mshr miss ratio for demand accesses (Ratio)
system.l2cache.overallMshrMissRate::cpu.inst     0.758324                       # mshr miss ratio for overall accesses (Ratio)
system.l2cache.overallMshrMissRate::cpu.data     0.216642                       # mshr miss ratio for overall accesses (Ratio)
system.l2cache.overallMshrMissRate::total     0.216729                       # mshr miss ratio for overall accesses (Ratio)
system.l2cache.demandAvgMshrMissLatency::cpu.inst 109682.719547                       # average overall mshr miss latency ((Cycle/Count))
system.l2cache.demandAvgMshrMissLatency::cpu.data 47934.257821                       # average overall mshr miss latency ((Cycle/Count))
system.l2cache.demandAvgMshrMissLatency::total 47969.168319                       # average overall mshr miss latency ((Cycle/Count))
system.l2cache.overallAvgMshrMissLatency::cpu.inst 109682.719547                       # average overall mshr miss latency ((Cycle/Count))
system.l2cache.overallAvgMshrMissLatency::cpu.data 47934.257821                       # average overall mshr miss latency ((Cycle/Count))
system.l2cache.overallAvgMshrMissLatency::total 47969.168319                       # average overall mshr miss latency ((Cycle/Count))
system.l2cache.replacements                   1244652                       # number of replacements (Count)
system.l2cache.CleanEvict.mshrMisses::writebacks          239                       # number of CleanEvict MSHR misses (Count)
system.l2cache.CleanEvict.mshrMisses::total          239                       # number of CleanEvict MSHR misses (Count)
system.l2cache.CleanEvict.mshrMissRate::writebacks          inf                       # mshr miss rate for CleanEvict accesses (Ratio)
system.l2cache.CleanEvict.mshrMissRate::total          inf                       # mshr miss rate for CleanEvict accesses (Ratio)
system.l2cache.ReadExReq.hits::cpu.data        996337                       # number of ReadExReq hits (Count)
system.l2cache.ReadExReq.hits::total           996337                       # number of ReadExReq hits (Count)
system.l2cache.ReadExReq.misses::cpu.data       294436                       # number of ReadExReq misses (Count)
system.l2cache.ReadExReq.misses::total         294436                       # number of ReadExReq misses (Count)
system.l2cache.ReadExReq.missLatency::cpu.data  24695170000                       # number of ReadExReq miss ticks (Tick)
system.l2cache.ReadExReq.missLatency::total  24695170000                       # number of ReadExReq miss ticks (Tick)
system.l2cache.ReadExReq.accesses::cpu.data      1290773                       # number of ReadExReq accesses(hits+misses) (Count)
system.l2cache.ReadExReq.accesses::total      1290773                       # number of ReadExReq accesses(hits+misses) (Count)
system.l2cache.ReadExReq.missRate::cpu.data     0.228108                       # miss rate for ReadExReq accesses (Ratio)
system.l2cache.ReadExReq.missRate::total     0.228108                       # miss rate for ReadExReq accesses (Ratio)
system.l2cache.ReadExReq.avgMissLatency::cpu.data 83872.794088                       # average ReadExReq miss latency ((Tick/Count))
system.l2cache.ReadExReq.avgMissLatency::total 83872.794088                       # average ReadExReq miss latency ((Tick/Count))
system.l2cache.ReadExReq.mshrMisses::cpu.data       294436                       # number of ReadExReq MSHR misses (Count)
system.l2cache.ReadExReq.mshrMisses::total       294436                       # number of ReadExReq MSHR misses (Count)
system.l2cache.ReadExReq.mshrMissLatency::cpu.data  18806450000                       # number of ReadExReq MSHR miss ticks (Tick)
system.l2cache.ReadExReq.mshrMissLatency::total  18806450000                       # number of ReadExReq MSHR miss ticks (Tick)
system.l2cache.ReadExReq.mshrMissRate::cpu.data     0.228108                       # mshr miss rate for ReadExReq accesses (Ratio)
system.l2cache.ReadExReq.mshrMissRate::total     0.228108                       # mshr miss rate for ReadExReq accesses (Ratio)
system.l2cache.ReadExReq.avgMshrMissLatency::cpu.data 63872.794088                       # average ReadExReq mshr miss latency ((Tick/Count))
system.l2cache.ReadExReq.avgMshrMissLatency::total 63872.794088                       # average ReadExReq mshr miss latency ((Tick/Count))
system.l2cache.ReadSharedReq.hits::cpu.inst          225                       # number of ReadSharedReq hits (Count)
system.l2cache.ReadSharedReq.hits::cpu.data      3516475                       # number of ReadSharedReq hits (Count)
system.l2cache.ReadSharedReq.hits::total      3516700                       # number of ReadSharedReq hits (Count)
system.l2cache.ReadSharedReq.misses::cpu.inst          706                       # number of ReadSharedReq misses (Count)
system.l2cache.ReadSharedReq.misses::cpu.data       953606                       # number of ReadSharedReq misses (Count)
system.l2cache.ReadSharedReq.misses::total       954312                       # number of ReadSharedReq misses (Count)
system.l2cache.ReadSharedReq.missLatency::cpu.inst     91556000                       # number of ReadSharedReq miss ticks (Tick)
system.l2cache.ReadSharedReq.missLatency::cpu.data  60089637000                       # number of ReadSharedReq miss ticks (Tick)
system.l2cache.ReadSharedReq.missLatency::total  60181193000                       # number of ReadSharedReq miss ticks (Tick)
system.l2cache.ReadSharedReq.accesses::cpu.inst          931                       # number of ReadSharedReq accesses(hits+misses) (Count)
system.l2cache.ReadSharedReq.accesses::cpu.data      4470081                       # number of ReadSharedReq accesses(hits+misses) (Count)
system.l2cache.ReadSharedReq.accesses::total      4471012                       # number of ReadSharedReq accesses(hits+misses) (Count)
system.l2cache.ReadSharedReq.missRate::cpu.inst     0.758324                       # miss rate for ReadSharedReq accesses (Ratio)
system.l2cache.ReadSharedReq.missRate::cpu.data     0.213331                       # miss rate for ReadSharedReq accesses (Ratio)
system.l2cache.ReadSharedReq.missRate::total     0.213444                       # miss rate for ReadSharedReq accesses (Ratio)
system.l2cache.ReadSharedReq.avgMissLatency::cpu.inst 129682.719547                       # average ReadSharedReq miss latency ((Tick/Count))
system.l2cache.ReadSharedReq.avgMissLatency::cpu.data 63013.065144                       # average ReadSharedReq miss latency ((Tick/Count))
system.l2cache.ReadSharedReq.avgMissLatency::total 63062.387353                       # average ReadSharedReq miss latency ((Tick/Count))
system.l2cache.ReadSharedReq.mshrMisses::cpu.inst          706                       # number of ReadSharedReq MSHR misses (Count)
system.l2cache.ReadSharedReq.mshrMisses::cpu.data       953606                       # number of ReadSharedReq MSHR misses (Count)
system.l2cache.ReadSharedReq.mshrMisses::total       954312                       # number of ReadSharedReq MSHR misses (Count)
system.l2cache.ReadSharedReq.mshrMissLatency::cpu.inst     77436000                       # number of ReadSharedReq MSHR miss ticks (Tick)
system.l2cache.ReadSharedReq.mshrMissLatency::cpu.data  41017517000                       # number of ReadSharedReq MSHR miss ticks (Tick)
system.l2cache.ReadSharedReq.mshrMissLatency::total  41094953000                       # number of ReadSharedReq MSHR miss ticks (Tick)
system.l2cache.ReadSharedReq.mshrMissRate::cpu.inst     0.758324                       # mshr miss rate for ReadSharedReq accesses (Ratio)
system.l2cache.ReadSharedReq.mshrMissRate::cpu.data     0.213331                       # mshr miss rate for ReadSharedReq accesses (Ratio)
system.l2cache.ReadSharedReq.mshrMissRate::total     0.213444                       # mshr miss rate for ReadSharedReq accesses (Ratio)
system.l2cache.ReadSharedReq.avgMshrMissLatency::cpu.inst 109682.719547                       # average ReadSharedReq mshr miss latency ((Tick/Count))
system.l2cache.ReadSharedReq.avgMshrMissLatency::cpu.data 43013.065144                       # average ReadSharedReq mshr miss latency ((Tick/Count))
system.l2cache.ReadSharedReq.avgMshrMissLatency::total 43062.387353                       # average ReadSharedReq mshr miss latency ((Tick/Count))
system.l2cache.UpgradeReq.hits::cpu.data       673677                       # number of UpgradeReq hits (Count)
system.l2cache.UpgradeReq.hits::total          673677                       # number of UpgradeReq hits (Count)
system.l2cache.UpgradeReq.accesses::cpu.data       673677                       # number of UpgradeReq accesses(hits+misses) (Count)
system.l2cache.UpgradeReq.accesses::total       673677                       # number of UpgradeReq accesses(hits+misses) (Count)
system.l2cache.WritebackDirty.hits::writebacks      5475051                       # number of WritebackDirty hits (Count)
system.l2cache.WritebackDirty.hits::total      5475051                       # number of WritebackDirty hits (Count)
system.l2cache.WritebackDirty.accesses::writebacks      5475051                       # number of WritebackDirty accesses(hits+misses) (Count)
system.l2cache.WritebackDirty.accesses::total      5475051                       # number of WritebackDirty accesses(hits+misses) (Count)
system.l2cache.power_state.pwrStateResidencyTicks::UNDEFINED 931198021000                       # Cumulative time (in ticks) in various power states (Tick)
system.l2cache.tags.tagsInUse             4086.203388                       # Average ticks per tags in use ((Tick/Count))
system.l2cache.tags.totalRefs                12196258                       # Total number of references to valid blocks. (Count)
system.l2cache.tags.sampledRefs               1248748                       # Sample count of references to valid blocks. (Count)
system.l2cache.tags.avgRefs                  9.766789                       # Average number of references to valid blocks. ((Count/Count))
system.l2cache.tags.warmupTick                 128000                       # The tick when the warmup percentage was hit. (Tick)
system.l2cache.tags.occupancies::cpu.inst     3.936064                       # Average occupied blocks per tick, per requestor ((Count/Tick))
system.l2cache.tags.occupancies::cpu.data  4082.267325                       # Average occupied blocks per tick, per requestor ((Count/Tick))
system.l2cache.tags.avgOccs::cpu.inst        0.000961                       # Average percentage of cache occupancy ((Ratio/Tick))
system.l2cache.tags.avgOccs::cpu.data        0.996647                       # Average percentage of cache occupancy ((Ratio/Tick))
system.l2cache.tags.avgOccs::total           0.997608                       # Average percentage of cache occupancy ((Ratio/Tick))
system.l2cache.tags.occupanciesTaskId::1024         4096                       # Occupied blocks per task id (Count)
system.l2cache.tags.ageTaskId_1024::0              62                       # Occupied blocks per task id, per block age (Count)
system.l2cache.tags.ageTaskId_1024::1             267                       # Occupied blocks per task id, per block age (Count)
system.l2cache.tags.ageTaskId_1024::2            2004                       # Occupied blocks per task id, per block age (Count)
system.l2cache.tags.ageTaskId_1024::3            1759                       # Occupied blocks per task id, per block age (Count)
system.l2cache.tags.ageTaskId_1024::4               4                       # Occupied blocks per task id, per block age (Count)
system.l2cache.tags.ratioOccsTaskId::1024            1                       # Ratio of occupied blocks and all blocks, per task id (Ratio)
system.l2cache.tags.tagAccesses              98820724                       # Number of tag accesses (Count)
system.l2cache.tags.dataAccesses             98820724                       # Number of data accesses (Count)
system.l2cache.tags.power_state.pwrStateResidencyTicks::UNDEFINED 931198021000                       # Cumulative time (in ticks) in various power states (Tick)
system.l3bus.transDist::ReadResp               954312                       # Transaction distribution (Count)
system.l3bus.transDist::WritebackDirty        1254922                       # Transaction distribution (Count)
system.l3bus.transDist::CleanEvict               1163                       # Transaction distribution (Count)
system.l3bus.transDist::ReadExReq              294436                       # Transaction distribution (Count)
system.l3bus.transDist::ReadExResp             294436                       # Transaction distribution (Count)
system.l3bus.transDist::ReadSharedReq          954312                       # Transaction distribution (Count)
system.l3bus.pktCount_system.l2cache.mem_side_port::system.l3cache.cpu_side_port      3741989                       # Packet count per connected requestor and responder (Count)
system.l3bus.pktSize_system.l2cache.mem_side_port::system.l3cache.cpu_side_port    159530432                       # Cumulative packet size per connected requestor and responder (Byte)
system.l3bus.snoops                             11592                       # Total snoops (Count)
system.l3bus.snoopTraffic                      704448                       # Total snoop traffic (Byte)
system.l3bus.snoopFanout::samples             1260340                       # Request fanout histogram (Count)
system.l3bus.snoopFanout::mean               0.000182                       # Request fanout histogram (Count)
system.l3bus.snoopFanout::stdev              0.013478                       # Request fanout histogram (Count)
system.l3bus.snoopFanout::underflows                0      0.00%      0.00% # Request fanout histogram (Count)
system.l3bus.snoopFanout::0                   1260111     99.98%     99.98% # Request fanout histogram (Count)
system.l3bus.snoopFanout::1                       229      0.02%    100.00% # Request fanout histogram (Count)
system.l3bus.snoopFanout::overflows                 0      0.00%    100.00% # Request fanout histogram (Count)
system.l3bus.snoopFanout::min_value                 0                       # Request fanout histogram (Count)
system.l3bus.snoopFanout::max_value                 1                       # Request fanout histogram (Count)
system.l3bus.snoopFanout::total               1260340                       # Request fanout histogram (Count)
system.l3bus.power_state.pwrStateResidencyTicks::UNDEFINED 931198021000                       # Cumulative time (in ticks) in various power states (Tick)
system.l3bus.reqLayer0.occupancy           4981071000                       # Layer occupancy (ticks) (Tick)
system.l3bus.reqLayer0.utilization                0.0                       # Layer utilization (Ratio)
system.l3bus.respLayer0.occupancy          3746244000                       # Layer occupancy (ticks) (Tick)
system.l3bus.respLayer0.utilization               0.0                       # Layer utilization (Ratio)
system.l3bus.snoop_filter.totRequests         2493241                       # Total number of requests made to the snoop filter. (Count)
system.l3bus.snoop_filter.hitSingleRequests      1244493                       # Number of requests hitting in the snoop filter with a single holder of the requested data. (Count)
system.l3bus.snoop_filter.hitMultiRequests            0                       # Number of requests hitting in the snoop filter with multiple (>1) holders of the requested data. (Count)
system.l3bus.snoop_filter.totSnoops               229                       # Total number of snoops made to the snoop filter. (Count)
system.l3bus.snoop_filter.hitSingleSnoops          229                       # Number of snoops hitting in the snoop filter with a single holder of the requested data. (Count)
system.l3bus.snoop_filter.hitMultiSnoops            0                       # Number of snoops hitting in the snoop filter with multiple (>1) holders of the requested data. (Count)
system.l3cache.demandHits::cpu.inst               106                       # number of demand (read+write) hits (Count)
system.l3cache.demandHits::cpu.data           1171514                       # number of demand (read+write) hits (Count)
system.l3cache.demandHits::total              1171620                       # number of demand (read+write) hits (Count)
system.l3cache.overallHits::cpu.inst              106                       # number of overall hits (Count)
system.l3cache.overallHits::cpu.data          1171514                       # number of overall hits (Count)
system.l3cache.overallHits::total             1171620                       # number of overall hits (Count)
system.l3cache.demandMisses::cpu.inst             600                       # number of demand (read+write) misses (Count)
system.l3cache.demandMisses::cpu.data           76528                       # number of demand (read+write) misses (Count)
system.l3cache.demandMisses::total              77128                       # number of demand (read+write) misses (Count)
system.l3cache.overallMisses::cpu.inst            600                       # number of overall misses (Count)
system.l3cache.overallMisses::cpu.data          76528                       # number of overall misses (Count)
system.l3cache.overallMisses::total             77128                       # number of overall misses (Count)
system.l3cache.demandMissLatency::cpu.inst     59678000                       # number of demand (read+write) miss ticks (Tick)
system.l3cache.demandMissLatency::cpu.data   7765249000                       # number of demand (read+write) miss ticks (Tick)
system.l3cache.demandMissLatency::total    7824927000                       # number of demand (read+write) miss ticks (Tick)
system.l3cache.overallMissLatency::cpu.inst     59678000                       # number of overall miss ticks (Tick)
system.l3cache.overallMissLatency::cpu.data   7765249000                       # number of overall miss ticks (Tick)
system.l3cache.overallMissLatency::total   7824927000                       # number of overall miss ticks (Tick)
system.l3cache.demandAccesses::cpu.inst           706                       # number of demand (read+write) accesses (Count)
system.l3cache.demandAccesses::cpu.data       1248042                       # number of demand (read+write) accesses (Count)
system.l3cache.demandAccesses::total          1248748                       # number of demand (read+write) accesses (Count)
system.l3cache.overallAccesses::cpu.inst          706                       # number of overall (read+write) accesses (Count)
system.l3cache.overallAccesses::cpu.data      1248042                       # number of overall (read+write) accesses (Count)
system.l3cache.overallAccesses::total         1248748                       # number of overall (read+write) accesses (Count)
system.l3cache.demandMissRate::cpu.inst      0.849858                       # miss rate for demand accesses (Ratio)
system.l3cache.demandMissRate::cpu.data      0.061318                       # miss rate for demand accesses (Ratio)
system.l3cache.demandMissRate::total         0.061764                       # miss rate for demand accesses (Ratio)
system.l3cache.overallMissRate::cpu.inst     0.849858                       # miss rate for overall accesses (Ratio)
system.l3cache.overallMissRate::cpu.data     0.061318                       # miss rate for overall accesses (Ratio)
system.l3cache.overallMissRate::total        0.061764                       # miss rate for overall accesses (Ratio)
system.l3cache.demandAvgMissLatency::cpu.inst 99463.333333                       # average overall miss latency ((Cycle/Count))
system.l3cache.demandAvgMissLatency::cpu.data 101469.383755                       # average overall miss latency ((Cycle/Count))
system.l3cache.demandAvgMissLatency::total 101453.778135                       # average overall miss latency ((Cycle/Count))
system.l3cache.overallAvgMissLatency::cpu.inst 99463.333333                       # average overall miss latency ((Cycle/Count))
system.l3cache.overallAvgMissLatency::cpu.data 101469.383755                       # average overall miss latency ((Cycle/Count))
system.l3cache.overallAvgMissLatency::total 101453.778135                       # average overall miss latency ((Cycle/Count))
system.l3cache.blockedCycles::no_mshrs              0                       # number of cycles access was blocked (Cycle)
system.l3cache.blockedCycles::no_targets            0                       # number of cycles access was blocked (Cycle)
system.l3cache.blockedCauses::no_mshrs              0                       # number of times access was blocked (Count)
system.l3cache.blockedCauses::no_targets            0                       # number of times access was blocked (Count)
system.l3cache.avgBlocked::no_mshrs               nan                       # average number of cycles each access was blocked ((Cycle/Count))
system.l3cache.avgBlocked::no_targets             nan                       # average number of cycles each access was blocked ((Cycle/Count))
system.l3cache.writebacks::writebacks           11007                       # number of writebacks (Count)
system.l3cache.writebacks::total                11007                       # number of writebacks (Count)
system.l3cache.demandMshrMisses::cpu.inst          600                       # number of demand (read+write) MSHR misses (Count)
system.l3cache.demandMshrMisses::cpu.data        76528                       # number of demand (read+write) MSHR misses (Count)
system.l3cache.demandMshrMisses::total          77128                       # number of demand (read+write) MSHR misses (Count)
system.l3cache.overallMshrMisses::cpu.inst          600                       # number of overall MSHR misses (Count)
system.l3cache.overallMshrMisses::cpu.data        76528                       # number of overall MSHR misses (Count)
system.l3cache.overallMshrMisses::total         77128                       # number of overall MSHR misses (Count)
system.l3cache.demandMshrMissLatency::cpu.inst     47678000                       # number of demand (read+write) MSHR miss ticks (Tick)
system.l3cache.demandMshrMissLatency::cpu.data   6234689000                       # number of demand (read+write) MSHR miss ticks (Tick)
system.l3cache.demandMshrMissLatency::total   6282367000                       # number of demand (read+write) MSHR miss ticks (Tick)
system.l3cache.overallMshrMissLatency::cpu.inst     47678000                       # number of overall MSHR miss ticks (Tick)
system.l3cache.overallMshrMissLatency::cpu.data   6234689000                       # number of overall MSHR miss ticks (Tick)
system.l3cache.overallMshrMissLatency::total   6282367000                       # number of overall MSHR miss ticks (Tick)
system.l3cache.demandMshrMissRate::cpu.inst     0.849858                       # mshr miss ratio for demand accesses (Ratio)
system.l3cache.demandMshrMissRate::cpu.data     0.061318                       # mshr miss ratio for demand accesses (Ratio)
system.l3cache.demandMshrMissRate::total     0.061764                       # mshr miss ratio for demand accesses (Ratio)
system.l3cache.overallMshrMissRate::cpu.inst     0.849858                       # mshr miss ratio for overall accesses (Ratio)
system.l3cache.overallMshrMissRate::cpu.data     0.061318                       # mshr miss ratio for overall accesses (Ratio)
system.l3cache.overallMshrMissRate::total     0.061764                       # mshr miss ratio for overall accesses (Ratio)
system.l3cache.demandAvgMshrMissLatency::cpu.inst 79463.333333                       # average overall mshr miss latency ((Cycle/Count))
system.l3cache.demandAvgMshrMissLatency::cpu.data 81469.383755                       # average overall mshr miss latency ((Cycle/Count))
system.l3cache.demandAvgMshrMissLatency::total 81453.778135                       # average overall mshr miss latency ((Cycle/Count))
system.l3cache.overallAvgMshrMissLatency::cpu.inst 79463.333333                       # average overall mshr miss latency ((Cycle/Count))
system.l3cache.overallAvgMshrMissLatency::cpu.data 81469.383755                       # average overall mshr miss latency ((Cycle/Count))
system.l3cache.overallAvgMshrMissLatency::total 81453.778135                       # average overall mshr miss latency ((Cycle/Count))
system.l3cache.replacements                     11592                       # number of replacements (Count)
system.l3cache.CleanEvict.mshrMisses::writebacks           70                       # number of CleanEvict MSHR misses (Count)
system.l3cache.CleanEvict.mshrMisses::total           70                       # number of CleanEvict MSHR misses (Count)
system.l3cache.CleanEvict.mshrMissRate::writebacks          inf                       # mshr miss rate for CleanEvict accesses (Ratio)
system.l3cache.CleanEvict.mshrMissRate::total          inf                       # mshr miss rate for CleanEvict accesses (Ratio)
system.l3cache.ReadExReq.hits::cpu.data        218060                       # number of ReadExReq hits (Count)
system.l3cache.ReadExReq.hits::total           218060                       # number of ReadExReq hits (Count)
system.l3cache.ReadExReq.misses::cpu.data        76376                       # number of ReadExReq misses (Count)
system.l3cache.ReadExReq.misses::total          76376                       # number of ReadExReq misses (Count)
system.l3cache.ReadExReq.missLatency::cpu.data   7749598000                       # number of ReadExReq miss ticks (Tick)
system.l3cache.ReadExReq.missLatency::total   7749598000                       # number of ReadExReq miss ticks (Tick)
system.l3cache.ReadExReq.accesses::cpu.data       294436                       # number of ReadExReq accesses(hits+misses) (Count)
system.l3cache.ReadExReq.accesses::total       294436                       # number of ReadExReq accesses(hits+misses) (Count)
system.l3cache.ReadExReq.missRate::cpu.data     0.259398                       # miss rate for ReadExReq accesses (Ratio)
system.l3cache.ReadExReq.missRate::total     0.259398                       # miss rate for ReadExReq accesses (Ratio)
system.l3cache.ReadExReq.avgMissLatency::cpu.data 101466.403059                       # average ReadExReq miss latency ((Tick/Count))
system.l3cache.ReadExReq.avgMissLatency::total 101466.403059                       # average ReadExReq miss latency ((Tick/Count))
system.l3cache.ReadExReq.mshrMisses::cpu.data        76376                       # number of ReadExReq MSHR misses (Count)
system.l3cache.ReadExReq.mshrMisses::total        76376                       # number of ReadExReq MSHR misses (Count)
system.l3cache.ReadExReq.mshrMissLatency::cpu.data   6222078000                       # number of ReadExReq MSHR miss ticks (Tick)
system.l3cache.ReadExReq.mshrMissLatency::total   6222078000                       # number of ReadExReq MSHR miss ticks (Tick)
system.l3cache.ReadExReq.mshrMissRate::cpu.data     0.259398                       # mshr miss rate for ReadExReq accesses (Ratio)
system.l3cache.ReadExReq.mshrMissRate::total     0.259398                       # mshr miss rate for ReadExReq accesses (Ratio)
system.l3cache.ReadExReq.avgMshrMissLatency::cpu.data 81466.403059                       # average ReadExReq mshr miss latency ((Tick/Count))
system.l3cache.ReadExReq.avgMshrMissLatency::total 81466.403059                       # average ReadExReq mshr miss latency ((Tick/Count))
system.l3cache.ReadSharedReq.hits::cpu.inst          106                       # number of ReadSharedReq hits (Count)
system.l3cache.ReadSharedReq.hits::cpu.data       953454                       # number of ReadSharedReq hits (Count)
system.l3cache.ReadSharedReq.hits::total       953560                       # number of ReadSharedReq hits (Count)
system.l3cache.ReadSharedReq.misses::cpu.inst          600                       # number of ReadSharedReq misses (Count)
system.l3cache.ReadSharedReq.misses::cpu.data          152                       # number of ReadSharedReq misses (Count)
system.l3cache.ReadSharedReq.misses::total          752                       # number of ReadSharedReq misses (Count)
system.l3cache.ReadSharedReq.missLatency::cpu.inst     59678000                       # number of ReadSharedReq miss ticks (Tick)
system.l3cache.ReadSharedReq.missLatency::cpu.data     15651000                       # number of ReadSharedReq miss ticks (Tick)
system.l3cache.ReadSharedReq.missLatency::total     75329000                       # number of ReadSharedReq miss ticks (Tick)
system.l3cache.ReadSharedReq.accesses::cpu.inst          706                       # number of ReadSharedReq accesses(hits+misses) (Count)
system.l3cache.ReadSharedReq.accesses::cpu.data       953606                       # number of ReadSharedReq accesses(hits+misses) (Count)
system.l3cache.ReadSharedReq.accesses::total       954312                       # number of ReadSharedReq accesses(hits+misses) (Count)
system.l3cache.ReadSharedReq.missRate::cpu.inst     0.849858                       # miss rate for ReadSharedReq accesses (Ratio)
system.l3cache.ReadSharedReq.missRate::cpu.data     0.000159                       # miss rate for ReadSharedReq accesses (Ratio)
system.l3cache.ReadSharedReq.missRate::total     0.000788                       # miss rate for ReadSharedReq accesses (Ratio)
system.l3cache.ReadSharedReq.avgMissLatency::cpu.inst 99463.333333                       # average ReadSharedReq miss latency ((Tick/Count))
[...]
system.mem_ctrl.dram.bytesInstRead::total        38400                       # Number of instructions bytes read from this memory (Byte)
system.mem_ctrl.dram.bytesWritten::writebacks       704448                       # Number of bytes written to this memory (Byte)
system.mem_ctrl.dram.bytesWritten::total       704448                       # Number of bytes written to this memory (Byte)
system.mem_ctrl.dram.numReads::cpu.inst           600                       # Number of read requests responded to by this memory (Count)
system.mem_ctrl.dram.numReads::cpu.data         76528                       # Number of read requests responded to by this memory (Count)
system.mem_ctrl.dram.numReads::total            77128                       # Number of read requests responded to by this memory (Count)
system.mem_ctrl.dram.numWrites::writebacks        11007                       # Number of write requests responded to by this memory (Count)
system.mem_ctrl.dram.numWrites::total           11007                       # Number of write requests responded to by this memory (Count)
system.mem_ctrl.dram.bwRead::cpu.inst           41237                       # Total read bandwidth from this memory ((Byte/Second))
system.mem_ctrl.dram.bwRead::cpu.data         5259668                       # Total read bandwidth from this memory ((Byte/Second))
system.mem_ctrl.dram.bwRead::total            5300905                       # Total read bandwidth from this memory ((Byte/Second))
system.mem_ctrl.dram.bwInstRead::cpu.inst        41237                       # Instruction read bandwidth from this memory ((Byte/Second))
system.mem_ctrl.dram.bwInstRead::total          41237                       # Instruction read bandwidth from this memory ((Byte/Second))
system.mem_ctrl.dram.bwWrite::writebacks       756496                       # Write bandwidth from this memory ((Byte/Second))
system.mem_ctrl.dram.bwWrite::total            756496                       # Write bandwidth from this memory ((Byte/Second))
system.mem_ctrl.dram.bwTotal::writebacks       756496                       # Total bandwidth to/from this memory ((Byte/Second))
system.mem_ctrl.dram.bwTotal::cpu.inst          41237                       # Total bandwidth to/from this memory ((Byte/Second))
system.mem_ctrl.dram.bwTotal::cpu.data        5259668                       # Total bandwidth to/from this memory ((Byte/Second))
system.mem_ctrl.dram.bwTotal::total           6057401                       # Total bandwidth to/from this memory ((Byte/Second))
system.mem_ctrl.dram.readBursts                 77128                       # Number of DRAM read bursts (Count)
system.mem_ctrl.dram.writeBursts                10978                       # Number of DRAM write bursts (Count)
system.mem_ctrl.dram.perBankRdBursts::0          4886                       # Per bank write bursts (Count)
system.mem_ctrl.dram.perBankRdBursts::1          4830                       # Per bank write bursts (Count)
system.mem_ctrl.dram.perBankRdBursts::2          4814                       # Per bank write bursts (Count)
system.mem_ctrl.dram.perBankRdBursts::3          4908                       # Per bank write bursts (Count)
system.mem_ctrl.dram.perBankRdBursts::4          4881                       # Per bank write bursts (Count)
system.mem_ctrl.dram.perBankRdBursts::5          4813                       # Per bank write bursts (Count)
system.mem_ctrl.dram.perBankRdBursts::6          4899                       # Per bank write bursts (Count)
system.mem_ctrl.dram.perBankRdBursts::7          4820                       # Per bank write bursts (Count)
system.mem_ctrl.dram.perBankRdBursts::8          4762                       # Per bank write bursts (Count)
system.mem_ctrl.dram.perBankRdBursts::9          4795                       # Per bank write bursts (Count)
system.mem_ctrl.dram.perBankRdBursts::10         4765                       # Per bank write bursts (Count)
system.mem_ctrl.dram.perBankRdBursts::11         4785                       # Per bank write bursts (Count)
system.mem_ctrl.dram.perBankRdBursts::12         4803                       # Per bank write bursts (Count)
system.mem_ctrl.dram.perBankRdBursts::13         4782                       # Per bank write bursts (Count)
system.mem_ctrl.dram.perBankRdBursts::14         4786                       # Per bank write bursts (Count)
system.mem_ctrl.dram.perBankRdBursts::15         4799                       # Per bank write bursts (Count)
system.mem_ctrl.dram.perBankWrBursts::0           682                       # Per bank write bursts (Count)
system.mem_ctrl.dram.perBankWrBursts::1           716                       # Per bank write bursts (Count)
system.mem_ctrl.dram.perBankWrBursts::2           682                       # Per bank write bursts (Count)
system.mem_ctrl.dram.perBankWrBursts::3           732                       # Per bank write bursts (Count)
system.mem_ctrl.dram.perBankWrBursts::4           760                       # Per bank write bursts (Count)
system.mem_ctrl.dram.perBankWrBursts::5           715                       # Per bank write bursts (Count)
system.mem_ctrl.dram.perBankWrBursts::6           763                       # Per bank write bursts (Count)
system.mem_ctrl.dram.perBankWrBursts::7           688                       # Per bank write bursts (Count)
system.mem_ctrl.dram.perBankWrBursts::8           654                       # Per bank write bursts (Count)
system.mem_ctrl.dram.perBankWrBursts::9           655                       # Per bank write bursts (Count)
system.mem_ctrl.dram.perBankWrBursts::10          652                       # Per bank write bursts (Count)
system.mem_ctrl.dram.perBankWrBursts::11          652                       # Per bank write bursts (Count)
system.mem_ctrl.dram.perBankWrBursts::12          651                       # Per bank write bursts (Count)
system.mem_ctrl.dram.perBankWrBursts::13          657                       # Per bank write bursts (Count)
system.mem_ctrl.dram.perBankWrBursts::14          665                       # Per bank write bursts (Count)
system.mem_ctrl.dram.perBankWrBursts::15          654                       # Per bank write bursts (Count)
system.mem_ctrl.dram.totQLat                878787250                       # Total ticks spent queuing (Tick)
system.mem_ctrl.dram.totBusLat              385640000                       # Total ticks spent in databus transfers (Tick)
system.mem_ctrl.dram.totMemAccLat          2324937250                       # Total ticks spent from burst creation until serviced by the DRAM (Tick)
system.mem_ctrl.dram.avgQLat                 11393.88                       # Average queueing delay per DRAM burst ((Tick/Count))
system.mem_ctrl.dram.avgBusLat                5000.00                       # Average bus latency per DRAM burst ((Tick/Count))
system.mem_ctrl.dram.avgMemAccLat            30143.88                       # Average memory access latency per DRAM burst ((Tick/Count))
system.mem_ctrl.dram.readRowHits                57289                       # Number of row buffer hits during reads (Count)
system.mem_ctrl.dram.writeRowHits                9610                       # Number of row buffer hits during writes (Count)
system.mem_ctrl.dram.readRowHitRate             74.28                       # Row buffer hit rate for reads (Ratio)
system.mem_ctrl.dram.writeRowHitRate            87.54                       # Row buffer hit rate for writes (Ratio)
system.mem_ctrl.dram.bytesPerActivate::samples        21204                       # Bytes accessed per row activation (Byte)
system.mem_ctrl.dram.bytesPerActivate::mean   265.909074                       # Bytes accessed per row activation (Byte)
system.mem_ctrl.dram.bytesPerActivate::gmean   239.562714                       # Bytes accessed per row activation (Byte)
system.mem_ctrl.dram.bytesPerActivate::stdev   149.941479                       # Bytes accessed per row activation (Byte)
system.mem_ctrl.dram.bytesPerActivate::0-127          767      3.62%      3.62% # Bytes accessed per row activation (Byte)
system.mem_ctrl.dram.bytesPerActivate::128-255         7189     33.90%     37.52% # Bytes accessed per row activation (Byte)
system.mem_ctrl.dram.bytesPerActivate::256-383        11043     52.08%     89.60% # Bytes accessed per row activation (Byte)
system.mem_ctrl.dram.bytesPerActivate::384-511         1486      7.01%     96.61% # Bytes accessed per row activation (Byte)
system.mem_ctrl.dram.bytesPerActivate::512-639           52      0.25%     96.85% # Bytes accessed per row activation (Byte)
system.mem_ctrl.dram.bytesPerActivate::640-767           38      0.18%     97.03% # Bytes accessed per row activation (Byte)
system.mem_ctrl.dram.bytesPerActivate::768-895           31      0.15%     97.18% # Bytes accessed per row activation (Byte)
system.mem_ctrl.dram.bytesPerActivate::896-1023           56      0.26%     97.44% # Bytes accessed per row activation (Byte)
system.mem_ctrl.dram.bytesPerActivate::1024-1151          542      2.56%    100.00% # Bytes accessed per row activation (Byte)
system.mem_ctrl.dram.bytesPerActivate::total        21204                       # Bytes accessed per row activation (Byte)
system.mem_ctrl.dram.bytesRead                4936192                       # Total bytes read (Byte)
system.mem_ctrl.dram.bytesWritten              702592                       # Total bytes written (Byte)
system.mem_ctrl.dram.avgRdBW                 5.300905                       # Average DRAM read bandwidth in MiBytes/s ((Byte/Second))
system.mem_ctrl.dram.avgWrBW                 0.754503                       # Average DRAM write bandwidth in MiBytes/s ((Byte/Second))
system.mem_ctrl.dram.peakBW                  12800.00                       # Theoretical peak bandwidth in MiByte/s ((Byte/Second))
system.mem_ctrl.dram.busUtil                     0.05                       # Data bus utilization in percentage (Ratio)
system.mem_ctrl.dram.busUtilRead                 0.04                       # Data bus utilization in percentage for reads (Ratio)
system.mem_ctrl.dram.busUtilWrite                0.01                       # Data bus utilization in percentage for writes (Ratio)
system.mem_ctrl.dram.pageHitRate                75.93                       # Row buffer hit rate, read and write combined (Ratio)
system.mem_ctrl.dram.power_state.pwrStateResidencyTicks::UNDEFINED 931198021000                       # Cumulative time (in ticks) in various power states (Tick)
system.mem_ctrl.dram.rank0.actEnergy         77012040                       # Energy for activate commands per rank (pJ) (Joule)
system.mem_ctrl.dram.rank0.preEnergy         40925280                       # Energy for precharge commands per rank (pJ) (Joule)
system.mem_ctrl.dram.rank0.readEnergy       277396140                       # Energy for read commands per rank (pJ) (Joule)
system.mem_ctrl.dram.rank0.writeEnergy       29952360                       # Energy for write commands per rank (pJ) (Joule)
system.mem_ctrl.dram.rank0.refreshEnergy 73507870800.000015                       # Energy for refresh commands per rank (pJ) (Joule)
system.mem_ctrl.dram.rank0.actBackEnergy  42397457850                       # Energy for active background per rank (pJ) (Joule)
system.mem_ctrl.dram.rank0.preBackEnergy 321876917760                       # Energy for precharge background per rank (pJ) (Joule)
system.mem_ctrl.dram.rank0.actPowerDownEnergy            0                       # Energy for active power-down per rank (pJ) (Joule)
system.mem_ctrl.dram.rank0.prePowerDownEnergy            0                       # Energy for precharge power-down per rank (pJ) (Joule)
system.mem_ctrl.dram.rank0.selfRefreshEnergy            0                       # Energy for self refresh per rank (pJ) (Joule)
system.mem_ctrl.dram.rank0.totalEnergy   438207532230                       # Total energy per rank (pJ) (Joule)
system.mem_ctrl.dram.rank0.averagePower    470.584690                       # Core power per rank (mW) (Watt)
system.mem_ctrl.dram.rank0.totalIdleTime            0                       # Total Idle time Per DRAM Rank (Tick)
system.mem_ctrl.dram.rank0.pwrStateTime::IDLE 836435124000                       # Time in different power states (Tick)
system.mem_ctrl.dram.rank0.pwrStateTime::REF  31094700000                       # Time in different power states (Tick)
system.mem_ctrl.dram.rank0.pwrStateTime::SREF            0                       # Time in different power states (Tick)
system.mem_ctrl.dram.rank0.pwrStateTime::PRE_PDN            0                       # Time in different power states (Tick)
system.mem_ctrl.dram.rank0.pwrStateTime::ACT  63668197000                       # Time in different power states (Tick)
system.mem_ctrl.dram.rank0.pwrStateTime::ACT_PDN            0                       # Time in different power states (Tick)
system.mem_ctrl.dram.rank1.actEnergy         74405940                       # Energy for activate commands per rank (pJ) (Joule)
system.mem_ctrl.dram.rank1.preEnergy         39543900                       # Energy for precharge commands per rank (pJ) (Joule)
system.mem_ctrl.dram.rank1.readEnergy       273297780                       # Energy for read commands per rank (pJ) (Joule)
system.mem_ctrl.dram.rank1.writeEnergy       27352800                       # Energy for write commands per rank (pJ) (Joule)
system.mem_ctrl.dram.rank1.refreshEnergy 73507870800.000015                       # Energy for refresh commands per rank (pJ) (Joule)
system.mem_ctrl.dram.rank1.actBackEnergy  41662336830                       # Energy for active background per rank (pJ) (Joule)
system.mem_ctrl.dram.rank1.preBackEnergy 322495967040                       # Energy for precharge background per rank (pJ) (Joule)
system.mem_ctrl.dram.rank1.actPowerDownEnergy            0                       # Energy for active power-down per rank (pJ) (Joule)
system.mem_ctrl.dram.rank1.prePowerDownEnergy            0                       # Energy for precharge power-down per rank (pJ) (Joule)
system.mem_ctrl.dram.rank1.selfRefreshEnergy            0                       # Energy for self refresh per rank (pJ) (Joule)
system.mem_ctrl.dram.rank1.totalEnergy   438080775090                       # Total energy per rank (pJ) (Joule)
system.mem_ctrl.dram.rank1.averagePower    470.448568                       # Core power per rank (mW) (Watt)
system.mem_ctrl.dram.rank1.totalIdleTime            0                       # Total Idle time Per DRAM Rank (Tick)
system.mem_ctrl.dram.rank1.pwrStateTime::IDLE 838050323000                       # Time in different power states (Tick)
system.mem_ctrl.dram.rank1.pwrStateTime::REF  31094700000                       # Time in different power states (Tick)
system.mem_ctrl.dram.rank1.pwrStateTime::SREF            0                       # Time in different power states (Tick)
system.mem_ctrl.dram.rank1.pwrStateTime::PRE_PDN            0                       # Time in different power states (Tick)
system.mem_ctrl.dram.rank1.pwrStateTime::ACT  62052998000                       # Time in different power states (Tick)
system.mem_ctrl.dram.rank1.pwrStateTime::ACT_PDN            0                       # Time in different power states (Tick)
system.mem_ctrl.power_state.pwrStateResidencyTicks::UNDEFINED 931198021000                       # Cumulative time (in ticks) in various power states (Tick)
system.membus.transDist::ReadResp                 752                       # Transaction distribution (Count)
system.membus.transDist::WritebackDirty         11007                       # Transaction distribution (Count)
system.membus.transDist::CleanEvict               426                       # Transaction distribution (Count)
system.membus.transDist::ReadExReq              76376                       # Transaction distribution (Count)
system.membus.transDist::ReadExResp             76376                       # Transaction distribution (Count)
system.membus.transDist::ReadSharedReq            752                       # Transaction distribution (Count)
system.membus.pktCount_system.l3cache.mem_side_port::system.mem_ctrl.port       165689                       # Packet count per connected requestor and responder (Count)
system.membus.pktCount::total                  165689                       # Packet count per connected requestor and responder (Count)
system.membus.pktSize_system.l3cache.mem_side_port::system.mem_ctrl.port      5640640                       # Cumulative packet size per connected requestor and responder (Byte)
system.membus.pktSize::total                  5640640                       # Cumulative packet size per connected requestor and responder (Byte)
system.membus.snoops                                0                       # Total snoops (Count)
system.membus.snoopTraffic                          0                       # Total snoop traffic (Byte)
system.membus.snoopFanout::samples              77128                       # Request fanout histogram (Count)
system.membus.snoopFanout::mean                     0                       # Request fanout histogram (Count)
system.membus.snoopFanout::stdev                    0                       # Request fanout histogram (Count)
system.membus.snoopFanout::underflows               0      0.00%      0.00% # Request fanout histogram (Count)
system.membus.snoopFanout::0                    77128    100.00%    100.00% # Request fanout histogram (Count)
system.membus.snoopFanout::1                        0      0.00%    100.00% # Request fanout histogram (Count)
system.membus.snoopFanout::overflows                0      0.00%    100.00% # Request fanout histogram (Count)
system.membus.snoopFanout::min_value                0                       # Request fanout histogram (Count)
system.membus.snoopFanout::max_value                0                       # Request fanout histogram (Count)
system.membus.snoopFanout::total                77128                       # Request fanout histogram (Count)
system.membus.power_state.pwrStateResidencyTicks::UNDEFINED 931198021000                       # Cumulative time (in ticks) in various power states (Tick)
system.membus.reqLayer0.occupancy           132589000                       # Layer occupancy (ticks) (Tick)
system.membus.reqLayer0.utilization               0.0                       # Layer utilization (Ratio)
system.membus.respLayer0.occupancy          409541250                       # Layer occupancy (ticks) (Tick)
system.membus.respLayer0.utilization              0.0                       # Layer utilization (Ratio)
system.membus.snoop_filter.totRequests          88561                       # Total number of requests made to the snoop filter. (Count)
system.membus.snoop_filter.hitSingleRequests        11433                       # Number of requests hitting in the snoop filter with a single holder of the requested data. (Count)
system.membus.snoop_filter.hitMultiRequests            0                       # Number of requests hitting in the snoop filter with multiple (>1) holders of the requested data. (Count)
system.membus.snoop_filter.totSnoops                0                       # Total number of snoops made to the snoop filter. (Count)
system.membus.snoop_filter.hitSingleSnoops            0                       # Number of snoops hitting in the snoop filter with a single holder of the requested data. (Count)
system.membus.snoop_filter.hitMultiSnoops            0                       # Number of snoops hitting in the snoop filter with multiple (>1) holders of the requested data. (Count)
system.workload.inst.arm                            0                       # number of arm instructions executed (Count)
system.workload.inst.quiesce                        0                       # number of quiesce instructions executed (Count)

---------- End Simulation Statistics   ----------
