
---------- Begin Simulation Statistics ----------
simSeconds                                   0.952702                       # Number of seconds simulated (Second)
simTicks                                 952701810000                       # Number of ticks simulated (Tick)
finalTick                                952701810000                       # Number of ticks from beginning of simulation (restored from checkpoints and never reset) (Tick)
simFreq                                  1000000000000                       # The number of ticks per simulated second ((Tick/Second))
hostSeconds                                    174.26                       # Real time elapsed on the host (Second)
hostTickRate                               5467051711                       # The number of ticks simulated per host second (ticks/s) ((Tick/Second))
hostMemory                                    8548020                       # Number of bytes of host memory used (Byte)
simInsts                                    261886465                       # Number of instructions simulated (Count)
simOps                                      261886465                       # Number of ops (including micro ops) simulated (Count)
hostInstRate                                  1502827                       # Simulator instruction rate (inst/s) ((Count/Second))
hostOpRate                                    1502827                       # Simulator op (including micro ops) rate (op/s) ((Count/Second))
system.clk_domain.clock                          1000                       # Clock period in ticks (Tick)
system.clk_domain.voltage_domain.voltage            1                       # Voltage in Volts (Volt)
system.cpu.numCycles                        952701810                       # Number of cpu cycles simulated (Cycle)
system.cpu.numWorkItemsStarted                      0                       # Number of work items this cpu started (Count)
system.cpu.numWorkItemsCompleted                    0                       # Number of work items this cpu completed (Count)
system.cpu.dcache.demandHits::cpu.data       90826648                       # number of demand (read+write) hits (Count)
system.cpu.dcache.demandHits::total          90826648                       # number of demand (read+write) hits (Count)
system.cpu.dcache.overallHits::cpu.data      90826648                       # number of overall hits (Count)
system.cpu.dcache.overallHits::total         90826648                       # number of overall hits (Count)
system.cpu.dcache.demandMisses::cpu.data      5760854                       # number of demand (read+write) misses (Count)
system.cpu.dcache.demandMisses::total         5760854                       # number of demand (read+write) misses (Count)
system.cpu.dcache.overallMisses::cpu.data      5760854                       # number of overall misses (Count)
system.cpu.dcache.overallMisses::total        5760854                       # number of overall misses (Count)
system.cpu.dcache.demandMissLatency::cpu.data 247196836000                       # number of demand (read+write) miss ticks (Tick)
system.cpu.dcache.demandMissLatency::total 247196836000                       # number of demand (read+write) miss ticks (Tick)
system.cpu.dcache.overallMissLatency::cpu.data 247196836000                       # number of overall miss ticks (Tick)
system.cpu.dcache.overallMissLatency::total 247196836000                       # number of overall miss ticks (Tick)
system.cpu.dcache.demandAccesses::cpu.data     96587502                       # number of demand (read+write) accesses (Count)
system.cpu.dcache.demandAccesses::total      96587502                       # number of demand (read+write) accesses (Count)
system.cpu.dcache.overallAccesses::cpu.data     96587502                       # number of overall (read+write) accesses (Count)
system.cpu.dcache.overallAccesses::total     96587502                       # number of overall (read+write) accesses (Count)
system.cpu.dcache.demandMissRate::cpu.data     0.059644                       # miss rate for demand accesses (Ratio)
system.cpu.dcache.demandMissRate::total      0.059644                       # miss rate for demand accesses (Ratio)
system.cpu.dcache.overallMissRate::cpu.data     0.059644                       # miss rate for overall accesses (Ratio)
system.cpu.dcache.overallMissRate::total     0.059644                       # miss rate for overall accesses (Ratio)
system.cpu.dcache.demandAvgMissLatency::cpu.data 42909.755394                       # average overall miss latency ((Cycle/Count))
system.cpu.dcache.demandAvgMissLatency::total 42909.755394                       # average overall miss latency ((Cycle/Count))
system.cpu.dcache.overallAvgMissLatency::cpu.data 42909.755394                       # average overall miss latency ((Cycle/Count))
system.cpu.dcache.overallAvgMissLatency::total 42909.755394                       # average overall miss latency ((Cycle/Count))
system.cpu.dcache.blockedCycles::no_mshrs            0                       # number of cycles access was blocked (Cycle)
system.cpu.dcache.blockedCycles::no_targets            0                       # number of cycles access was blocked (Cycle)
system.cpu.dcache.blockedCauses::no_mshrs            0                       # number of times access was blocked (Count)
system.cpu.dcache.blockedCauses::no_targets            0                       # number of times access was blocked (Count)
system.cpu.dcache.avgBlocked::no_mshrs            nan                       # average number of cycles each access was blocked ((Cycle/Count))
system.cpu.dcache.avgBlocked::no_targets          nan                       # average number of cycles each access was blocked ((Cycle/Count))
system.cpu.dcache.writebacks::writebacks      4482237                       # number of writebacks (Count)
system.cpu.dcache.writebacks::total           4482237                       # number of writebacks (Count)
system.cpu.dcache.demandMshrMisses::cpu.data      5760854                       # number of demand (read+write) MSHR misses (Count)
system.cpu.dcache.demandMshrMisses::total      5760854                       # number of demand (read+write) MSHR misses (Count)
system.cpu.dcache.overallMshrMisses::cpu.data      5760854                       # number of overall MSHR misses (Count)
system.cpu.dcache.overallMshrMisses::total      5760854                       # number of overall MSHR misses (Count)
system.cpu.dcache.demandMshrMissLatency::cpu.data 235675128000                       # number of demand (read+write) MSHR miss ticks (Tick)
system.cpu.dcache.demandMshrMissLatency::total 235675128000                       # number of demand (read+write) MSHR miss ticks (Tick)
system.cpu.dcache.overallMshrMissLatency::cpu.data 235675128000                       # number of overall MSHR miss ticks (Tick)
system.cpu.dcache.overallMshrMissLatency::total 235675128000                       # number of overall MSHR miss ticks (Tick)
system.cpu.dcache.demandMshrMissRate::cpu.data     0.059644                       # mshr miss ratio for demand accesses (Ratio)
system.cpu.dcache.demandMshrMissRate::total     0.059644                       # mshr miss ratio for demand accesses (Ratio)
system.cpu.dcache.overallMshrMissRate::cpu.data     0.059644                       # mshr miss ratio for overall accesses (Ratio)
system.cpu.dcache.overallMshrMissRate::total     0.059644                       # mshr miss ratio for overall accesses (Ratio)
system.cpu.dcache.demandAvgMshrMissLatency::cpu.data 40909.755394                       # average overall mshr miss latency ((Cycle/Count))
system.cpu.dcache.demandAvgMshrMissLatency::total 40909.755394                       # average overall mshr miss latency ((Cycle/Count))
system.cpu.dcache.overallAvgMshrMissLatency::cpu.data 40909.755394                       # average overall mshr miss latency ((Cycle/Count))
system.cpu.dcache.overallAvgMshrMissLatency::total 40909.755394                       # average overall mshr miss latency ((Cycle/Count))
system.cpu.dcache.replacements                5760342                       # number of replacements (Count)
system.cpu.dcache.ReadReq.hits::cpu.data     55527962                       # number of ReadReq hits (Count)
system.cpu.dcache.ReadReq.hits::total        55527962                       # number of ReadReq hits (Count)
system.cpu.dcache.ReadReq.misses::cpu.data      4470081                       # number of ReadReq misses (Count)
system.cpu.dcache.ReadReq.misses::total       4470081                       # number of ReadReq misses (Count)
system.cpu.dcache.ReadReq.missLatency::cpu.data 190021986000                       # number of ReadReq miss ticks (Tick)
system.cpu.dcache.ReadReq.missLatency::total 190021986000                       # number of ReadReq miss ticks (Tick)
system.cpu.dcache.ReadReq.accesses::cpu.data     59998043                       # number of ReadReq accesses(hits+misses) (Count)
system.cpu.dcache.ReadReq.accesses::total     59998043                       # number of ReadReq accesses(hits+misses) (Count)
system.cpu.dcache.ReadReq.missRate::cpu.data     0.074504                       # miss rate for ReadReq accesses (Ratio)
system.cpu.dcache.ReadReq.missRate::total     0.074504                       # miss rate for ReadReq accesses (Ratio)
system.cpu.dcache.ReadReq.avgMissLatency::cpu.data 42509.741099                       # average ReadReq miss latency ((Tick/Count))
system.cpu.dcache.ReadReq.avgMissLatency::total 42509.741099                       # average ReadReq miss latency ((Tick/Count))
system.cpu.dcache.ReadReq.mshrMisses::cpu.data      4470081                       # number of ReadReq MSHR misses (Count)
system.cpu.dcache.ReadReq.mshrMisses::total      4470081                       # number of ReadReq MSHR misses (Count)
system.cpu.dcache.ReadReq.mshrMissLatency::cpu.data 181081824000                       # number of ReadReq MSHR miss ticks (Tick)
system.cpu.dcache.ReadReq.mshrMissLatency::total 181081824000                       # number of ReadReq MSHR miss ticks (Tick)
system.cpu.dcache.ReadReq.mshrMissRate::cpu.data     0.074504                       # mshr miss rate for ReadReq accesses (Ratio)
system.cpu.dcache.ReadReq.mshrMissRate::total     0.074504                       # mshr miss rate for ReadReq accesses (Ratio)
system.cpu.dcache.ReadReq.avgMshrMissLatency::cpu.data 40509.741099                       # average ReadReq mshr miss latency ((Tick/Count))
system.cpu.dcache.ReadReq.avgMshrMissLatency::total 40509.741099                       # average ReadReq mshr miss latency ((Tick/Count))
system.cpu.dcache.WriteReq.hits::cpu.data     35298686                       # number of WriteReq hits (Count)
system.cpu.dcache.WriteReq.hits::total       35298686                       # number of WriteReq hits (Count)
system.cpu.dcache.WriteReq.misses::cpu.data      1290773                       # number of WriteReq misses (Count)
system.cpu.dcache.WriteReq.misses::total      1290773                       # number of WriteReq misses (Count)
system.cpu.dcache.WriteReq.missLatency::cpu.data  57174850000                       # number of WriteReq miss ticks (Tick)
system.cpu.dcache.WriteReq.missLatency::total  57174850000                       # number of WriteReq miss ticks (Tick)
system.cpu.dcache.WriteReq.accesses::cpu.data     36589459                       # number of WriteReq accesses(hits+misses) (Count)
system.cpu.dcache.WriteReq.accesses::total     36589459                       # number of WriteReq accesses(hits+misses) (Count)
system.cpu.dcache.WriteReq.missRate::cpu.data     0.035277                       # miss rate for WriteReq accesses (Ratio)
system.cpu.dcache.WriteReq.missRate::total     0.035277                       # miss rate for WriteReq accesses (Ratio)
system.cpu.dcache.WriteReq.avgMissLatency::cpu.data 44295.046457                       # average WriteReq miss latency ((Tick/Count))
system.cpu.dcache.WriteReq.avgMissLatency::total 44295.046457                       # average WriteReq miss latency ((Tick/Count))
system.cpu.dcache.WriteReq.mshrMisses::cpu.data      1290773                       # number of WriteReq MSHR misses (Count)
system.cpu.dcache.WriteReq.mshrMisses::total      1290773                       # number of WriteReq MSHR misses (Count)
system.cpu.dcache.WriteReq.mshrMissLatency::cpu.data  54593304000                       # number of WriteReq MSHR miss ticks (Tick)
system.cpu.dcache.WriteReq.mshrMissLatency::total  54593304000                       # number of WriteReq MSHR miss ticks (Tick)
system.cpu.dcache.WriteReq.mshrMissRate::cpu.data     0.035277                       # mshr miss rate for WriteReq accesses (Ratio)
system.cpu.dcache.WriteReq.mshrMissRate::total     0.035277                       # mshr miss rate for WriteReq accesses (Ratio)
system.cpu.dcache.WriteReq.avgMshrMissLatency::cpu.data 42295.046457                       # average WriteReq mshr miss latency ((Tick/Count))
system.cpu.dcache.WriteReq.avgMshrMissLatency::total 42295.046457                       # average WriteReq mshr miss latency ((Tick/Count))
system.cpu.dcache.power_state.pwrStateResidencyTicks::UNDEFINED 952701810000                       # Cumulative time (in ticks) in various power states (Tick)
system.cpu.dcache.tags.tagsInUse           511.835329                       # Average ticks per tags in use ((Tick/Count))
system.cpu.dcache.tags.totalRefs             96587502                       # Total number of references to valid blocks. (Count)
system.cpu.dcache.tags.sampledRefs            5760854                       # Sample count of references to valid blocks. (Count)
system.cpu.dcache.tags.avgRefs              16.766178                       # Average number of references to valid blocks. ((Count/Count))
system.cpu.dcache.tags.warmupTick              222000                       # The tick when the warmup percentage was hit. (Tick)
system.cpu.dcache.tags.occupancies::cpu.data   511.835329                       # Average occupied blocks per tick, per requestor ((Count/Tick))
system.cpu.dcache.tags.avgOccs::cpu.data     0.999678                       # Average percentage of cache occupancy ((Ratio/Tick))
system.cpu.dcache.tags.avgOccs::total        0.999678                       # Average percentage of cache occupancy ((Ratio/Tick))
system.cpu.dcache.tags.occupanciesTaskId::1024          512                       # Occupied blocks per task id (Count)
system.cpu.dcache.tags.ageTaskId_1024::0           28                       # Occupied blocks per task id, per block age (Count)
system.cpu.dcache.tags.ageTaskId_1024::1          211                       # Occupied blocks per task id, per block age (Count)
system.cpu.dcache.tags.ageTaskId_1024::2          273                       # Occupied blocks per task id, per block age (Count)
system.cpu.dcache.tags.ratioOccsTaskId::1024            1                       # Ratio of occupied blocks and all blocks, per task id (Ratio)
system.cpu.dcache.tags.tagAccesses          102348356                       # Number of tag accesses (Count)
system.cpu.dcache.tags.dataAccesses         102348356                       # Number of data accesses (Count)
system.cpu.dcache.tags.power_state.pwrStateResidencyTicks::UNDEFINED 952701810000                       # Cumulative time (in ticks) in various power states (Tick)
system.cpu.exec_context.thread_0.numInsts    261886465                       # Number of instructions committed (Count)
system.cpu.exec_context.thread_0.numOps     261886465                       # Number of ops (including micro ops) committed (Count)
system.cpu.exec_context.thread_0.numIntAluAccesses    258108852                       # Number of integer alu accesses (Count)
system.cpu.exec_context.thread_0.numFpAluAccesses           18                       # Number of float alu accesses (Count)
system.cpu.exec_context.thread_0.numVecAluAccesses            0                       # Number of vector alu accesses (Count)
system.cpu.exec_context.thread_0.numCallsReturns      2258319                       # Number of times a function call or return occured (Count)
system.cpu.exec_context.thread_0.numCondCtrlInsts     34562482                       # Number of instructions that are conditional controls (Count)
system.cpu.exec_context.thread_0.numIntInsts    258108852                       # Number of integer instructions (Count)
system.cpu.exec_context.thread_0.numFpInsts           18                       # Number of float instructions (Count)
system.cpu.exec_context.thread_0.numVecInsts            0                       # Number of vector instructions (Count)
system.cpu.exec_context.thread_0.numIntRegReads    474563446                       # Number of times the integer registers were read (Count)
system.cpu.exec_context.thread_0.numIntRegWrites    231335006                       # Number of times the integer registers were written (Count)
system.cpu.exec_context.thread_0.numFpRegReads           18                       # Number of times the floating registers were read (Count)
system.cpu.exec_context.thread_0.numFpRegWrites            0                       # Number of times the floating registers were written (Count)
system.cpu.exec_context.thread_0.numVecRegReads            0                       # Number of times the vector registers were read (Count)
system.cpu.exec_context.thread_0.numVecRegWrites            0                       # Number of times the vector registers were written (Count)
system.cpu.exec_context.thread_0.numVecPredRegReads            0                       # Number of times the predicate registers were read (Count)
system.cpu.exec_context.thread_0.numVecPredRegWrites            0                       # Number of times the predicate registers were written (Count)
system.cpu.exec_context.thread_0.numMiscRegReads            0                       # Number of times the Misc registers were read (Count)
system.cpu.exec_context.thread_0.numMiscRegWrites            0                       # Number of times the Misc registers were written (Count)
system.cpu.exec_context.thread_0.numMemRefs     96588692                       # Number of memory refs (Count)
system.cpu.exec_context.thread_0.numLoadInsts     59998042                       # Number of load instructions (Count)
system.cpu.exec_context.thread_0.numStoreInsts     36590650                       # Number of store instructions (Count)
system.cpu.exec_context.thread_0.numIdleCycles     0.001000                       # Number of idle cycles (Cycle)
system.cpu.exec_context.thread_0.numBusyCycles 952701809.999000                       # Number of busy cycles (Cycle)
system.cpu.exec_context.thread_0.notIdleFraction     1.000000                       # Percentage of non-idle cycles (Ratio)
system.cpu.exec_context.thread_0.idleFraction     0.000000                       # Percentage of idle cycles (Ratio)
system.cpu.exec_context.thread_0.numBranches     40599267                       # Number of branches fetched (Count)
system.cpu.exec_context.thread_0.statExecutedInstType::No_OpClass            0      0.00%      0.00% # Class of executed instruction. (Count)
system.cpu.exec_context.thread_0.statExecutedInstType::IntAlu    165299019     63.12%     63.12% # Class of executed instruction. (Count)
system.cpu.exec_context.thread_0.statExecutedInstType::IntMult            0      0.00%     63.12% # Class of executed instruction. (Count)
system.cpu.exec_context.thread_0.statExecutedInstType::IntDiv            0      0.00%     63.12% # Class of executed instruction. (Count)
system.cpu.exec_context.thread_0.statExecutedInstType::FloatAdd            0      0.00%     63.12% # Class of executed instruction. (Count)
system.cpu.exec_context.thread_0.statExecutedInstType::FloatCmp            0      0.00%     63.12% # Class of executed instruction. (Count)
system.cpu.exec_context.thread_0.statExecutedInstType::FloatCvt            0      0.00%     63.12% # Class of executed instruction. (Count)
system.cpu.exec_context.thread_0.statExecutedInstType::FloatMult            0      0.00%     63.12% # Class of executed instruction. (Count)
system.cpu.exec_context.thread_0.statExecutedInstType::FloatMultAcc            0      0.00%     63.12% # Class of executed instruction. (Count)
system.cpu.exec_context.thread_0.statExecutedInstType::FloatDiv            0      0.00%     63.12% # Class of executed instruction. (Count)
system.cpu.exec_context.thread_0.statExecutedInstType::FloatMisc            0      0.00%     63.12% # Class of executed instruction. (Count)
system.cpu.exec_context.thread_0.statExecutedInstType::FloatSqrt            0      0.00%     63.12% # Class of executed instruction. (Count)
system.cpu.exec_context.thread_0.statExecutedInstType::SimdAdd            0      0.00%     63.12% # Class of executed instruction. (Count)
system.cpu.exec_context.thread_0.statExecutedInstType::SimdAddAcc            0      0.00%     63.12% # Class of executed instruction. (Count)
system.cpu.exec_context.thread_0.statExecutedInstType::SimdAlu            0      0.00%     63.12% # Class of executed instruction. (Count)
system.cpu.exec_context.thread_0.statExecutedInstType::SimdCmp            0      0.00%     63.12% # Class of executed instruction. (Count)
system.cpu.exec_context.thread_0.statExecutedInstType::SimdCvt            0      0.00%     63.12% # Class of executed instruction. (Count)
system.cpu.exec_context.thread_0.statExecutedInstType::SimdMisc            0      0.00%     63.12% # Class of executed instruction. (Count)
system.cpu.exec_context.thread_0.statExecutedInstType::SimdMult            0      0.00%     63.12% # Class of executed instruction. (Count)
system.cpu.exec_context.thread_0.statExecutedInstType::SimdMultAcc            0      0.00%     63.12% # Class of executed instruction. (Count)
system.cpu.exec_context.thread_0.statExecutedInstType::SimdShift            0      0.00%     63.12% # Class of executed instruction. (Count)
system.cpu.exec_context.thread_0.statExecutedInstType::SimdShiftAcc            0      0.00%     63.12% # Class of executed instruction. (Count)
system.cpu.exec_context.thread_0.statExecutedInstType::SimdDiv            0      0.00%     63.12% # Class of executed instruction. (Count)
system.cpu.exec_context.thread_0.statExecutedInstType::SimdSqrt            0      0.00%     63.12% # Class of executed instruction. (Count)
system.cpu.exec_context.thread_0.statExecutedInstType::SimdFloatAdd            0      0.00%     63.12% # Class of executed instruction. (Count)
system.cpu.exec_context.thread_0.statExecutedInstType::SimdFloatAlu            0      0.00%     63.12% # Class of executed instruction. (Count)
system.cpu.exec_context.thread_0.statExecutedInstType::SimdFloatCmp            0      0.00%     63.12% # Class of executed instruction. (Count)
system.cpu.exec_context.thread_0.statExecutedInstType::SimdFloatCvt            0      0.00%     63.12% # Class of executed instruction. (Count)
system.cpu.exec_context.thread_0.statExecutedInstType::SimdFloatDiv            0      0.00%     63.12% # Class of executed instruction. (Count)
system.cpu.exec_context.thread_0.statExecutedInstType::SimdFloatMisc            0      0.00%     63.12% # Class of executed instruction. (Count)
system.cpu.exec_context.thread_0.statExecutedInstType::SimdFloatMult            0      0.00%     63.12% # Class of executed instruction. (Count)
system.cpu.exec_context.thread_0.statExecutedInstType::SimdFloatMultAcc            0      0.00%     63.12% # Class of executed instruction. (Count)
system.cpu.exec_context.thread_0.statExecutedInstType::SimdFloatSqrt            0      0.00%     63.12% # Class of executed instruction. (Count)
system.cpu.exec_context.thread_0.statExecutedInstType::SimdReduceAdd            0      0.00%     63.12% # Class of executed instruction. (Count)
system.cpu.exec_context.thread_0.statExecutedInstType::SimdReduceAlu            0      0.00%     63.12% # Class of executed instruction. (Count)
system.cpu.exec_context.thread_0.statExecutedInstType::SimdReduceCmp            0      0.00%     63.12% # Class of executed instruction. (Count)
system.cpu.exec_context.thread_0.statExecutedInstType::SimdFloatReduceAdd            0      0.00%     63.12% # Class of executed instruction. (Count)
system.cpu.exec_context.thread_0.statExecutedInstType::SimdFloatReduceCmp            0      0.00%     63.12% # Class of executed instruction. (Count)
system.cpu.exec_context.thread_0.statExecutedInstType::SimdAes            0      0.00%     63.12% # Class of executed instruction. (Count)
system.cpu.exec_context.thread_0.statExecutedInstType::SimdAesMix            0      0.00%     63.12% # Class of executed instruction. (Count)
system.cpu.exec_context.thread_0.statExecutedInstType::SimdSha1Hash            0      0.00%     63.12% # Class of executed instruction. (Count)
system.cpu.exec_context.thread_0.statExecutedInstType::SimdSha1Hash2            0      0.00%     63.12% # Class of executed instruction. (Count)
system.cpu.exec_context.thread_0.statExecutedInstType::SimdSha256Hash            0      0.00%     63.12% # Class of executed instruction. (Count)
system.cpu.exec_context.thread_0.statExecutedInstType::SimdSha256Hash2            0      0.00%     63.12% # Class of executed instruction. (Count)
system.cpu.exec_context.thread_0.statExecutedInstType::SimdShaSigma2            0      0.00%     63.12% # Class of executed instruction. (Count)
system.cpu.exec_context.thread_0.statExecutedInstType::SimdShaSigma3            0      0.00%     63.12% # Class of executed instruction. (Count)
system.cpu.exec_context.thread_0.statExecutedInstType::SimdPredAlu            0      0.00%     63.12% # Class of executed instruction. (Count)
system.cpu.exec_context.thread_0.statExecutedInstType::MemRead     59998042     22.91%     86.03% # Class of executed instruction. (Count)
system.cpu.exec_context.thread_0.statExecutedInstType::MemWrite     36590632     13.97%    100.00% # Class of executed instruction. (Count)
system.cpu.exec_context.thread_0.statExecutedInstType::FloatMemRead            0      0.00%    100.00% # Class of executed instruction. (Count)
system.cpu.exec_context.thread_0.statExecutedInstType::FloatMemWrite           18      0.00%    100.00% # Class of executed instruction. (Count)
system.cpu.exec_context.thread_0.statExecutedInstType::IprAccess            0      0.00%    100.00% # Class of executed instruction. (Count)
system.cpu.exec_context.thread_0.statExecutedInstType::InstPrefetch            0      0.00%    100.00% # Class of executed instruction. (Count)
system.cpu.exec_context.thread_0.statExecutedInstType::total    261887711                       # Class of executed instruction. (Count)
system.cpu.icache.demandHits::cpu.inst      261886780                       # number of demand (read+write) hits (Count)
system.cpu.icache.demandHits::total         261886780                       # number of demand (read+write) hits (Count)
system.cpu.icache.overallHits::cpu.inst     261886780                       # number of overall hits (Count)
system.cpu.icache.overallHits::total        261886780                       # number of overall hits (Count)
system.cpu.icache.demandMisses::cpu.inst          931                       # number of demand (read+write) misses (Count)
system.cpu.icache.demandMisses::total             931                       # number of demand (read+write) misses (Count)
system.cpu.icache.overallMisses::cpu.inst          931                       # number of overall misses (Count)
system.cpu.icache.overallMisses::total            931                       # number of overall misses (Count)
system.cpu.icache.demandMissLatency::cpu.inst     78229000                       # number of demand (read+write) miss ticks (Tick)
system.cpu.icache.demandMissLatency::total     78229000                       # number of demand (read+write) miss ticks (Tick)
system.cpu.icache.overallMissLatency::cpu.inst     78229000                       # number of overall miss ticks (Tick)
system.cpu.icache.overallMissLatency::total     78229000                       # number of overall miss ticks (Tick)
system.cpu.icache.demandAccesses::cpu.inst    261887711                       # number of demand (read+write) accesses (Count)
system.cpu.icache.demandAccesses::total     261887711                       # number of demand (read+write) accesses (Count)
system.cpu.icache.overallAccesses::cpu.inst    261887711                       # number of overall (read+write) accesses (Count)
system.cpu.icache.overallAccesses::total    261887711                       # number of overall (read+write) accesses (Count)
system.cpu.icache.demandMissRate::cpu.inst     0.000004                       # miss rate for demand accesses (Ratio)
system.cpu.icache.demandMissRate::total      0.000004                       # miss rate for demand accesses (Ratio)
system.cpu.icache.overallMissRate::cpu.inst     0.000004                       # miss rate for overall accesses (Ratio)
system.cpu.icache.overallMissRate::total     0.000004                       # miss rate for overall accesses (Ratio)
system.cpu.icache.demandAvgMissLatency::cpu.inst 84026.852846                       # average overall miss latency ((Cycle/Count))
system.cpu.icache.demandAvgMissLatency::total 84026.852846                       # average overall miss latency ((Cycle/Count))
system.cpu.icache.overallAvgMissLatency::cpu.inst 84026.852846                       # average overall miss latency ((Cycle/Count))
system.cpu.icache.overallAvgMissLatency::total 84026.852846                       # average overall miss latency ((Cycle/Count))
system.cpu.icache.blockedCycles::no_mshrs            0                       # number of cycles access was blocked (Cycle)
system.cpu.icache.blockedCycles::no_targets            0                       # number of cycles access was blocked (Cycle)
system.cpu.icache.blockedCauses::no_mshrs            0                       # number of times access was blocked (Count)
system.cpu.icache.blockedCauses::no_targets            0                       # number of times access was blocked (Count)
system.cpu.icache.avgBlocked::no_mshrs            nan                       # average number of cycles each access was blocked ((Cycle/Count))
system.cpu.icache.avgBlocked::no_targets          nan                       # average number of cycles each access was blocked ((Cycle/Count))
system.cpu.icache.demandMshrMisses::cpu.inst          931                       # number of demand (read+write) MSHR misses (Count)
system.cpu.icache.demandMshrMisses::total          931                       # number of demand (read+write) MSHR misses (Count)
system.cpu.icache.overallMshrMisses::cpu.inst          931                       # number of overall MSHR misses (Count)
system.cpu.icache.overallMshrMisses::total          931                       # number of overall MSHR misses (Count)
system.cpu.icache.demandMshrMissLatency::cpu.inst     76367000                       # number of demand (read+write) MSHR miss ticks (Tick)
system.cpu.icache.demandMshrMissLatency::total     76367000                       # number of demand (read+write) MSHR miss ticks (Tick)
system.cpu.icache.overallMshrMissLatency::cpu.inst     76367000                       # number of overall MSHR miss ticks (Tick)
system.cpu.icache.overallMshrMissLatency::total     76367000                       # number of overall MSHR miss ticks (Tick)
system.cpu.icache.demandMshrMissRate::cpu.inst     0.000004                       # mshr miss ratio for demand accesses (Ratio)
system.cpu.icache.demandMshrMissRate::total     0.000004                       # mshr miss ratio for demand accesses (Ratio)
system.cpu.icache.overallMshrMissRate::cpu.inst     0.000004                       # mshr miss ratio for overall accesses (Ratio)
system.cpu.icache.overallMshrMissRate::total     0.000004                       # mshr miss ratio for overall accesses (Ratio)
system.cpu.icache.demandAvgMshrMissLatency::cpu.inst 82026.852846                       # average overall mshr miss latency ((Cycle/Count))
system.cpu.icache.demandAvgMshrMissLatency::total 82026.852846                       # average overall mshr miss latency ((Cycle/Count))
system.cpu.icache.overallAvgMshrMissLatency::cpu.inst 82026.852846                       # average overall mshr miss latency ((Cycle/Count))
system.cpu.icache.overallAvgMshrMissLatency::total 82026.852846                       # average overall mshr miss latency ((Cycle/Count))
system.cpu.icache.replacements                    695                       # number of replacements (Count)
system.cpu.icache.ReadReq.hits::cpu.inst    261886780                       # number of ReadReq hits (Count)
system.cpu.icache.ReadReq.hits::total       261886780                       # number of ReadReq hits (Count)
system.cpu.icache.ReadReq.misses::cpu.inst          931                       # number of ReadReq misses (Count)
system.cpu.icache.ReadReq.misses::total           931                       # number of ReadReq misses (Count)
system.cpu.icache.ReadReq.missLatency::cpu.inst     78229000                       # number of ReadReq miss ticks (Tick)
system.cpu.icache.ReadReq.missLatency::total     78229000                       # number of ReadReq miss ticks (Tick)
system.cpu.icache.ReadReq.accesses::cpu.inst    261887711                       # number of ReadReq accesses(hits+misses) (Count)
system.cpu.icache.ReadReq.accesses::total    261887711                       # number of ReadReq accesses(hits+misses) (Count)
system.cpu.icache.ReadReq.missRate::cpu.inst     0.000004                       # miss rate for ReadReq accesses (Ratio)
system.cpu.icache.ReadReq.missRate::total     0.000004                       # miss rate for ReadReq accesses (Ratio)
system.cpu.icache.ReadReq.avgMissLatency::cpu.inst 84026.852846                       # average ReadReq miss latency ((Tick/Count))
system.cpu.icache.ReadReq.avgMissLatency::total 84026.852846                       # average ReadReq miss latency ((Tick/Count))
system.cpu.icache.ReadReq.mshrMisses::cpu.inst          931                       # number of ReadReq MSHR misses (Count)
system.cpu.icache.ReadReq.mshrMisses::total          931                       # number of ReadReq MSHR misses (Count)
system.cpu.icache.ReadReq.mshrMissLatency::cpu.inst     76367000                       # number of ReadReq MSHR miss ticks (Tick)
system.cpu.icache.ReadReq.mshrMissLatency::total     76367000                       # number of ReadReq MSHR miss ticks (Tick)
system.cpu.icache.ReadReq.mshrMissRate::cpu.inst     0.000004                       # mshr miss rate for ReadReq accesses (Ratio)
system.cpu.icache.ReadReq.mshrMissRate::total     0.000004                       # mshr miss rate for ReadReq accesses (Ratio)
system.cpu.icache.ReadReq.avgMshrMissLatency::cpu.inst 82026.852846                       # average ReadReq mshr miss latency ((Tick/Count))
system.cpu.icache.ReadReq.avgMshrMissLatency::total 82026.852846                       # average ReadReq mshr miss latency ((Tick/Count))
system.cpu.icache.power_state.pwrStateResidencyTicks::UNDEFINED 952701810000                       # Cumulative time (in ticks) in various power states (Tick)
system.cpu.icache.tags.tagsInUse           226.459038                       # Average ticks per tags in use ((Tick/Count))
system.cpu.icache.tags.totalRefs            261887711                       # Total number of references to valid blocks. (Count)
system.cpu.icache.tags.sampledRefs                931                       # Sample count of references to valid blocks. (Count)
system.cpu.icache.tags.avgRefs           281297.219119                       # Average number of references to valid blocks. ((Count/Count))
system.cpu.icache.tags.warmupTick              107000                       # The tick when the warmup percentage was hit. (Tick)
system.cpu.icache.tags.occupancies::cpu.inst   226.459038                       # Average occupied blocks per tick, per requestor ((Count/Tick))
system.cpu.icache.tags.avgOccs::cpu.inst     0.884606                       # Average percentage of cache occupancy ((Ratio/Tick))
system.cpu.icache.tags.avgOccs::total        0.884606                       # Average percentage of cache occupancy ((Ratio/Tick))
system.cpu.icache.tags.occupanciesTaskId::1024          236                       # Occupied blocks per task id (Count)
system.cpu.icache.tags.ageTaskId_1024::0           47                       # Occupied blocks per task id, per block age (Count)
system.cpu.icache.tags.ageTaskId_1024::1           31                       # Occupied blocks per task id, per block age (Count)
system.cpu.icache.tags.ageTaskId_1024::4          158                       # Occupied blocks per task id, per block age (Count)
system.cpu.icache.tags.ratioOccsTaskId::1024     0.921875                       # Ratio of occupied blocks and all blocks, per task id (Ratio)
system.cpu.icache.tags.tagAccesses          261888642                       # Number of tag accesses (Count)
system.cpu.icache.tags.dataAccesses         261888642                       # Number of data accesses (Count)
system.cpu.icache.tags.power_state.pwrStateResidencyTicks::UNDEFINED 952701810000                       # Cumulative time (in ticks) in various power states (Tick)
system.cpu.power_state.pwrStateResidencyTicks::ON 952701810000                       # Cumulative time (in ticks) in various power states (Tick)
system.cpu.thread_0.numInsts                        0                       # Number of Instructions committed (Count)
system.cpu.thread_0.numOps                          0                       # Number of Ops committed (Count)
system.cpu.thread_0.numMemRefs                      0                       # Number of Memory References (Count)
system.cpu.workload.numSyscalls                    54                       # Number of system calls (Count)
system.l2bus.transDist::ReadResp              4471012                       # Transaction distribution (Count)
system.l2bus.transDist::WritebackDirty        5455308                       # Transaction distribution (Count)
system.l2bus.transDist::CleanEvict            1550381                       # Transaction distribution (Count)
system.l2bus.transDist::ReadExReq             1290773                       # Transaction distribution (Count)
system.l2bus.transDist::ReadExResp            1290773                       # Transaction distribution (Count)
system.l2bus.transDist::ReadSharedReq         4471012                       # Transaction distribution (Count)
system.l2bus.pktCount_system.cpu.icache.mem_side_port::system.l2cache.cpu_side_port         2557                       # Packet count per connected requestor and responder (Count)
system.l2bus.pktCount_system.cpu.dcache.mem_side_port::system.l2cache.cpu_side_port     17282050                       # Packet count per connected requestor and responder (Count)
system.l2bus.pktCount::total                 17284607                       # Packet count per connected requestor and responder (Count)
system.l2bus.pktSize_system.cpu.icache.mem_side_port::system.l2cache.cpu_side_port        59584                       # Cumulative packet size per connected requestor and responder (Byte)
system.l2bus.pktSize_system.cpu.dcache.mem_side_port::system.l2cache.cpu_side_port    655557824                       # Cumulative packet size per connected requestor and responder (Byte)
system.l2bus.pktSize::total                 655617408                       # Cumulative packet size per connected requestor and responder (Byte)
system.l2bus.snoops                           1244652                       # Total snoops (Count)
system.l2bus.snoopTraffic                    62276544                       # Total snoop traffic (Byte)
system.l2bus.snoopFanout::samples             7006437                       # Request fanout histogram (Count)
system.l2bus.snoopFanout::mean               0.000057                       # Request fanout histogram (Count)
system.l2bus.snoopFanout::stdev              0.007546                       # Request fanout histogram (Count)
system.l2bus.snoopFanout::underflows                0      0.00%      0.00% # Request fanout histogram (Count)
system.l2bus.snoopFanout::0                   7006038     99.99%     99.99% # Request fanout histogram (Count)
system.l2bus.snoopFanout::1                       399      0.01%    100.00% # Request fanout histogram (Count)
system.l2bus.snoopFanout::2                         0      0.00%    100.00% # Request fanout histogram (Count)
system.l2bus.snoopFanout::overflows                 0      0.00%    100.00% # Request fanout histogram (Count)
system.l2bus.snoopFanout::min_value                 0                       # Request fanout histogram (Count)
system.l2bus.snoopFanout::max_value                 1                       # Request fanout histogram (Count)
system.l2bus.snoopFanout::total               7006437                       # Request fanout histogram (Count)
system.l2bus.power_state.pwrStateResidencyTicks::UNDEFINED 952701810000                       # Cumulative time (in ticks) in various power states (Tick)
system.l2bus.reqLayer0.occupancy          20487296000                       # Layer occupancy (ticks) (Tick)
system.l2bus.reqLayer0.utilization                0.0                       # Layer utilization (Ratio)
system.l2bus.respLayer0.occupancy             2793000                       # Layer occupancy (ticks) (Tick)
system.l2bus.respLayer0.utilization               0.0                       # Layer utilization (Ratio)
system.l2bus.respLayer1.occupancy         17282562000                       # Layer occupancy (ticks) (Tick)
system.l2bus.respLayer1.utilization               0.0                       # Layer utilization (Ratio)
system.l2bus.snoop_filter.totRequests        11522822                       # Total number of requests made to the snoop filter. (Count)
system.l2bus.snoop_filter.hitSingleRequests      5761037                       # Number of requests hitting in the snoop filter with a single holder of the requested data. (Count)
system.l2bus.snoop_filter.hitMultiRequests            2                       # Number of requests hitting in the snoop filter with multiple (>1) holders of the requested data. (Count)
system.l2bus.snoop_filter.totSnoops               397                       # Total number of snoops made to the snoop filter. (Count)
system.l2bus.snoop_filter.hitSingleSnoops          397                       # Number of snoops hitting in the snoop filter with a single holder of the requested data. (Count)
system.l2bus.snoop_filter.hitMultiSnoops            0                       # Number of snoops hitting in the snoop filter with multiple (>1) holders of the requested data. (Count)
system.l2cache.demandHits::cpu.inst               225                       # number of demand (read+write) hits (Count)
system.l2cache.demandHits::cpu.data           4512812                       # number of demand (read+write) hits (Count)
system.l2cache.demandHits::total              4513037                       # number of demand (read+write) hits (Count)
system.l2cache.overallHits::cpu.inst              225                       # number of overall hits (Count)
system.l2cache.overallHits::cpu.data          4512812                       # number of overall hits (Count)
system.l2cache.overallHits::total             4513037                       # number of overall hits (Count)
system.l2cache.demandMisses::cpu.inst             706                       # number of demand (read+write) misses (Count)
system.l2cache.demandMisses::cpu.data         1248042                       # number of demand (read+write) misses (Count)
system.l2cache.demandMisses::total            1248748                       # number of demand (read+write) misses (Count)
system.l2cache.overallMisses::cpu.inst            706                       # number of overall misses (Count)
system.l2cache.overallMisses::cpu.data        1248042                       # number of overall misses (Count)
system.l2cache.overallMisses::total           1248748                       # number of overall misses (Count)
system.l2cache.demandMissLatency::cpu.inst     68836000                       # number of demand (read+write) miss ticks (Tick)
system.l2cache.demandMissLatency::cpu.data 122647365000                       # number of demand (read+write) miss ticks (Tick)
system.l2cache.demandMissLatency::total  122716201000                       # number of demand (read+write) miss ticks (Tick)
system.l2cache.overallMissLatency::cpu.inst     68836000                       # number of overall miss ticks (Tick)
system.l2cache.overallMissLatency::cpu.data 122647365000                       # number of overall miss ticks (Tick)
system.l2cache.overallMissLatency::total 122716201000                       # number of overall miss ticks (Tick)
system.l2cache.demandAccesses::cpu.inst           931                       # number of demand (read+write) accesses (Count)
system.l2cache.demandAccesses::cpu.data       5760854                       # number of demand (read+write) accesses (Count)
system.l2cache.demandAccesses::total          5761785                       # number of demand (read+write) accesses (Count)
system.l2cache.overallAccesses::cpu.inst          931                       # number of overall (read+write) accesses (Count)
system.l2cache.overallAccesses::cpu.data      5760854                       # number of overall (read+write) accesses (Count)
system.l2cache.overallAccesses::total         5761785                       # number of overall (read+write) accesses (Count)
system.l2cache.demandMissRate::cpu.inst      0.758324                       # miss rate for demand accesses (Ratio)
system.l2cache.demandMissRate::cpu.data      0.216642                       # miss rate for demand accesses (Ratio)
system.l2cache.demandMissRate::total         0.216729                       # miss rate for demand accesses (Ratio)
system.l2cache.overallMissRate::cpu.inst     0.758324                       # miss rate for overall accesses (Ratio)
system.l2cache.overallMissRate::cpu.data     0.216642                       # miss rate for overall accesses (Ratio)
system.l2cache.overallMissRate::total        0.216729                       # miss rate for overall accesses (Ratio)
system.l2cache.demandAvgMissLatency::cpu.inst 97501.416431                       # average overall miss latency ((Cycle/Count))
system.l2cache.demandAvgMissLatency::cpu.data 98271.824987                       # average overall miss latency ((Cycle/Count))
system.l2cache.demandAvgMissLatency::total 98271.389424                       # average overall miss latency ((Cycle/Count))
system.l2cache.overallAvgMissLatency::cpu.inst 97501.416431                       # average overall miss latency ((Cycle/Count))
system.l2cache.overallAvgMissLatency::cpu.data 98271.824987                       # average overall miss latency ((Cycle/Count))
system.l2cache.overallAvgMissLatency::total 98271.389424                       # average overall miss latency ((Cycle/Count))
system.l2cache.blockedCycles::no_mshrs              0                       # number of cycles access was blocked (Cycle)
system.l2cache.blockedCycles::no_targets            0                       # number of cycles access was blocked (Cycle)
system.l2cache.blockedCauses::no_mshrs              0                       # number of times access was blocked (Count)
system.l2cache.blockedCauses::no_targets            0                       # number of times access was blocked (Count)
system.l2cache.avgBlocked::no_mshrs               nan                       # average number of cycles each access was blocked ((Cycle/Count))
system.l2cache.avgBlocked::no_targets             nan                       # average number of cycles each access was blocked ((Cycle/Count))
system.l2cache.writebacks::writebacks          973071                       # number of writebacks (Count)
system.l2cache.writebacks::total               973071                       # number of writebacks (Count)
system.l2cache.demandMshrMisses::cpu.inst          706                       # number of demand (read+write) MSHR misses (Count)
system.l2cache.demandMshrMisses::cpu.data      1248042                       # number of demand (read+write) MSHR misses (Count)
system.l2cache.demandMshrMisses::total        1248748                       # number of demand (read+write) MSHR misses (Count)
system.l2cache.overallMshrMisses::cpu.inst          706                       # number of overall MSHR misses (Count)
system.l2cache.overallMshrMisses::cpu.data      1248042                       # number of overall MSHR misses (Count)
system.l2cache.overallMshrMisses::total       1248748                       # number of overall MSHR misses (Count)
system.l2cache.demandMshrMissLatency::cpu.inst     54716000                       # number of demand (read+write) MSHR miss ticks (Tick)
system.l2cache.demandMshrMissLatency::cpu.data  97686525000                       # number of demand (read+write) MSHR miss ticks (Tick)
system.l2cache.demandMshrMissLatency::total  97741241000                       # number of demand (read+write) MSHR miss ticks (Tick)
system.l2cache.overallMshrMissLatency::cpu.inst     54716000                       # number of overall MSHR miss ticks (Tick)
system.l2cache.overallMshrMissLatency::cpu.data  97686525000                       # number of overall MSHR miss ticks (Tick)
system.l2cache.overallMshrMissLatency::total  97741241000                       # number of overall MSHR miss ticks (Tick)
system.l2cache.demandMshrMissRate::cpu.inst     0.758324                       # mshr miss ratio for demand accesses (Ratio)
system.l2cache.demandMshrMissRate::cpu.data     0.216642                       # mshr miss ratio for demand accesses (Ratio)
system.l2cache.demandMshrMissRate::total     0.216729                       # mshr miss ratio for demand accesses (Ratio)
system.l2cache.overallMshrMissRate::cpu.inst     0.758324                       # mshr miss ratio for overall accesses (Ratio)
system.l2cache.overallMshrMissRate::cpu.data     0.216642                       # mshr miss ratio for overall accesses (Ratio)
system.l2cache.overallMshrMissRate::total     0.216729                       # mshr miss ratio for overall accesses (Ratio)
system.l2cache.demandAvgMshrMissLatency::cpu.inst 77501.416431                       # average overall mshr miss latency ((Cycle/Count))
system.l2cache.demandAvgMshrMissLatency::cpu.data 78271.824987                       # average overall mshr miss latency ((Cycle/Count))
system.l2cache.demandAvgMshrMissLatency::total 78271.389424                       # average overall mshr miss latency ((Cycle/Count))
system.l2cache.overallAvgMshrMissLatency::cpu.inst 77501.416431                       # average overall mshr miss latency ((Cycle/Count))
system.l2cache.overallAvgMshrMissLatency::cpu.data 78271.824987                       # average overall mshr miss latency ((Cycle/Count))
system.l2cache.overallAvgMshrMissLatency::total 78271.389424                       # average overall mshr miss latency ((Cycle/Count))
system.l2cache.replacements                   1244652                       # number of replacements (Count)
system.l2cache.CleanEvict.mshrMisses::writebacks          239                       # number of CleanEvict MSHR misses (Count)
system.l2cache.CleanEvict.mshrMisses::total          239                       # number of CleanEvict MSHR misses (Count)
system.l2cache.CleanEvict.mshrMissRate::writebacks          inf                       # mshr miss rate for CleanEvict accesses (Ratio)
system.l2cache.CleanEvict.mshrMissRate::total          inf                       # mshr miss rate for CleanEvict accesses (Ratio)
system.l2cache.ReadExReq.hits::cpu.data        996337                       # number of ReadExReq hits (Count)
system.l2cache.ReadExReq.hits::total           996337                       # number of ReadExReq hits (Count)
system.l2cache.ReadExReq.misses::cpu.data       294436                       # number of ReadExReq misses (Count)
system.l2cache.ReadExReq.misses::total         294436                       # number of ReadExReq misses (Count)
system.l2cache.ReadExReq.missLatency::cpu.data  29427352000                       # number of ReadExReq miss ticks (Tick)
system.l2cache.ReadExReq.missLatency::total  29427352000                       # number of ReadExReq miss ticks (Tick)
system.l2cache.ReadExReq.accesses::cpu.data      1290773                       # number of ReadExReq accesses(hits+misses) (Count)
system.l2cache.ReadExReq.accesses::total      1290773                       # number of ReadExReq accesses(hits+misses) (Count)
system.l2cache.ReadExReq.missRate::cpu.data     0.228108                       # miss rate for ReadExReq accesses (Ratio)
system.l2cache.ReadExReq.missRate::total     0.228108                       # miss rate for ReadExReq accesses (Ratio)
system.l2cache.ReadExReq.avgMissLatency::cpu.data 99944.816531                       # average ReadExReq miss latency ((Tick/Count))
system.l2cache.ReadExReq.avgMissLatency::total 99944.816531                       # average ReadExReq miss latency ((Tick/Count))
system.l2cache.ReadExReq.mshrMisses::cpu.data       294436                       # number of ReadExReq MSHR misses (Count)
system.l2cache.ReadExReq.mshrMisses::total       294436                       # number of ReadExReq MSHR misses (Count)
system.l2cache.ReadExReq.mshrMissLatency::cpu.data  23538632000                       # number of ReadExReq MSHR miss ticks (Tick)
system.l2cache.ReadExReq.mshrMissLatency::total  23538632000                       # number of ReadExReq MSHR miss ticks (Tick)
system.l2cache.ReadExReq.mshrMissRate::cpu.data     0.228108                       # mshr miss rate for ReadExReq accesses (Ratio)
system.l2cache.ReadExReq.mshrMissRate::total     0.228108                       # mshr miss rate for ReadExReq accesses (Ratio)
system.l2cache.ReadExReq.avgMshrMissLatency::cpu.data 79944.816531                       # average ReadExReq mshr miss latency ((Tick/Count))
system.l2cache.ReadExReq.avgMshrMissLatency::total 79944.816531                       # average ReadExReq mshr miss latency ((Tick/Count))
system.l2cache.ReadSharedReq.hits::cpu.inst          225                       # number of ReadSharedReq hits (Count)
system.l2cache.ReadSharedReq.hits::cpu.data      3516475                       # number of ReadSharedReq hits (Count)
system.l2cache.ReadSharedReq.hits::total      3516700                       # number of ReadSharedReq hits (Count)
system.l2cache.ReadSharedReq.misses::cpu.inst          706                       # number of ReadSharedReq misses (Count)
system.l2cache.ReadSharedReq.misses::cpu.data       953606                       # number of ReadSharedReq misses (Count)
system.l2cache.ReadSharedReq.misses::total       954312                       # number of ReadSharedReq misses (Count)
system.l2cache.ReadSharedReq.missLatency::cpu.inst     68836000                       # number of ReadSharedReq miss ticks (Tick)
system.l2cache.ReadSharedReq.missLatency::cpu.data  93220013000                       # number of ReadSharedReq miss ticks (Tick)
system.l2cache.ReadSharedReq.missLatency::total  93288849000                       # number of ReadSharedReq miss ticks (Tick)
system.l2cache.ReadSharedReq.accesses::cpu.inst          931                       # number of ReadSharedReq accesses(hits+misses) (Count)
system.l2cache.ReadSharedReq.accesses::cpu.data      4470081                       # number of ReadSharedReq accesses(hits+misses) (Count)
system.l2cache.ReadSharedReq.accesses::total      4471012                       # number of ReadSharedReq accesses(hits+misses) (Count)
system.l2cache.ReadSharedReq.missRate::cpu.inst     0.758324                       # miss rate for ReadSharedReq accesses (Ratio)
system.l2cache.ReadSharedReq.missRate::cpu.data     0.213331                       # miss rate for ReadSharedReq accesses (Ratio)
system.l2cache.ReadSharedReq.missRate::total     0.213444                       # miss rate for ReadSharedReq accesses (Ratio)
system.l2cache.ReadSharedReq.avgMissLatency::cpu.inst 97501.416431                       # average ReadSharedReq miss latency ((Tick/Count))
system.l2cache.ReadSharedReq.avgMissLatency::cpu.data 97755.271045                       # average ReadSharedReq miss latency ((Tick/Count))
system.l2cache.ReadSharedReq.avgMissLatency::total 97755.083243                       # average ReadSharedReq miss latency ((Tick/Count))
system.l2cache.ReadSharedReq.mshrMisses::cpu.inst          706                       # number of ReadSharedReq MSHR misses (Count)
system.l2cache.ReadSharedReq.mshrMisses::cpu.data       953606                       # number of ReadSharedReq MSHR misses (Count)
system.l2cache.ReadSharedReq.mshrMisses::total       954312                       # number of ReadSharedReq MSHR misses (Count)
system.l2cache.ReadSharedReq.mshrMissLatency::cpu.inst     54716000                       # number of ReadSharedReq MSHR miss ticks (Tick)
system.l2cache.ReadSharedReq.mshrMissLatency::cpu.data  74147893000                       # number of ReadSharedReq MSHR miss ticks (Tick)
system.l2cache.ReadSharedReq.mshrMissLatency::total  74202609000                       # number of ReadSharedReq MSHR miss ticks (Tick)
system.l2cache.ReadSharedReq.mshrMissRate::cpu.inst     0.758324                       # mshr miss rate for ReadSharedReq accesses (Ratio)
system.l2cache.ReadSharedReq.mshrMissRate::cpu.data     0.213331                       # mshr miss rate for ReadSharedReq accesses (Ratio)
system.l2cache.ReadSharedReq.mshrMissRate::total     0.213444                       # mshr miss rate for ReadSharedReq accesses (Ratio)
system.l2cache.ReadSharedReq.avgMshrMissLatency::cpu.inst 77501.416431                       # average ReadSharedReq mshr miss latency ((Tick/Count))
system.l2cache.ReadSharedReq.avgMshrMissLatency::cpu.data 77755.271045                       # average ReadSharedReq mshr miss latency ((Tick/Count))
system.l2cache.ReadSharedReq.avgMshrMissLatency::total 77755.083243                       # average ReadSharedReq mshr miss latency ((Tick/Count))
system.l2cache.WritebackDirty.hits::writebacks      4482237                       # number of WritebackDirty hits (Count)
system.l2cache.WritebackDirty.hits::total      4482237                       # number of WritebackDirty hits (Count)
system.l2cache.WritebackDirty.accesses::writebacks      4482237                       # number of WritebackDirty accesses(hits+misses) (Count)
system.l2cache.WritebackDirty.accesses::total      4482237                       # number of WritebackDirty accesses(hits+misses) (Count)
system.l2cache.power_state.pwrStateResidencyTicks::UNDEFINED 952701810000                       # Cumulative time (in ticks) in various power states (Tick)
system.l2cache.tags.tagsInUse             4086.838586                       # Average ticks per tags in use ((Tick/Count))
system.l2cache.tags.totalRefs                11522581                       # Total number of references to valid blocks. (Count)
system.l2cache.tags.sampledRefs               1248748                       # Sample count of references to valid blocks. (Count)
system.l2cache.tags.avgRefs                  9.227307                       # Average number of references to valid blocks. ((Count/Count))
system.l2cache.tags.warmupTick                  86000                       # The tick when the warmup percentage was hit. (Tick)
system.l2cache.tags.occupancies::cpu.inst     3.775433                       # Average occupied blocks per tick, per requestor ((Count/Tick))
system.l2cache.tags.occupancies::cpu.data  4083.063153                       # Average occupied blocks per tick, per requestor ((Count/Tick))
system.l2cache.tags.avgOccs::cpu.inst        0.000922                       # Average percentage of cache occupancy ((Ratio/Tick))
system.l2cache.tags.avgOccs::cpu.data        0.996842                       # Average percentage of cache occupancy ((Ratio/Tick))
system.l2cache.tags.avgOccs::total           0.997763                       # Average percentage of cache occupancy ((Ratio/Tick))
system.l2cache.tags.occupanciesTaskId::1024         4096                       # Occupied blocks per task id (Count)
system.l2cache.tags.ageTaskId_1024::0              82                       # Occupied blocks per task id, per block age (Count)
system.l2cache.tags.ageTaskId_1024::1             252                       # Occupied blocks per task id, per block age (Count)
system.l2cache.tags.ageTaskId_1024::2            1955                       # Occupied blocks per task id, per block age (Count)
system.l2cache.tags.ageTaskId_1024::3            1803                       # Occupied blocks per task id, per block age (Count)
system.l2cache.tags.ageTaskId_1024::4               4                       # Occupied blocks per task id, per block age (Count)
system.l2cache.tags.ratioOccsTaskId::1024            1                       # Ratio of occupied blocks and all blocks, per task id (Ratio)
system.l2cache.tags.tagAccesses              93431308                       # Number of tag accesses (Count)
system.l2cache.tags.dataAccesses             93431308                       # Number of data accesses (Count)
system.l2cache.tags.power_state.pwrStateResidencyTicks::UNDEFINED 952701810000                       # Cumulative time (in ticks) in various power states (Tick)
system.mem_ctrl.avgPriority_writebacks::samples    973071.00                       # Average QoS priority value for accepted requests (Count)
system.mem_ctrl.avgPriority_cpu.inst::samples       706.00                       # Average QoS priority value for accepted requests (Count)
system.mem_ctrl.avgPriority_cpu.data::samples   1247954.00                       # Average QoS priority value for accepted requests (Count)
system.mem_ctrl.priorityMinLatency       0.000000018750                       # per QoS priority minimum request to response latency (Second)
system.mem_ctrl.priorityMaxLatency       0.010224500500                       # per QoS priority maximum request to response latency (Second)
system.mem_ctrl.numReadWriteTurnArounds         54158                       # Number of turnarounds from READ to WRITE (Count)
system.mem_ctrl.numWriteReadTurnArounds         54158                       # Number of turnarounds from WRITE to READ (Count)
system.mem_ctrl.numStayReadState              3711742                       # Number of times bus staying in READ state (Count)
system.mem_ctrl.numStayWriteState              920605                       # Number of times bus staying in WRITE state (Count)
system.mem_ctrl.readReqs                      1248748                       # Number of read requests accepted (Count)
system.mem_ctrl.writeReqs                      973071                       # Number of write requests accepted (Count)
system.mem_ctrl.readBursts                    1248748                       # Number of controller read bursts, including those serviced by the write queue (Count)
system.mem_ctrl.writeBursts                    973071                       # Number of controller write bursts, including those merged in the write queue (Count)
system.mem_ctrl.servicedByWrQ                      88                       # Number of controller read bursts serviced by the write queue (Count)
system.mem_ctrl.mergedWrBursts                      0                       # Number of controller write bursts merged with an existing one (Count)
system.mem_ctrl.neitherReadNorWriteReqs             0                       # Number of requests that are neither read nor write (Count)
system.mem_ctrl.avgRdQLen                        1.00                       # Average read queue length when enqueuing ((Count/Tick))
system.mem_ctrl.avgWrQLen                       24.49                       # Average write queue length when enqueuing ((Count/Tick))
system.mem_ctrl.numRdRetry                          0                       # Number of times read queue was full causing retry (Count)
system.mem_ctrl.numWrRetry                          0                       # Number of times write queue was full causing retry (Count)
system.mem_ctrl.readPktSize::0                      0                       # Read request sizes (log2) (Count)
system.mem_ctrl.readPktSize::1                      0                       # Read request sizes (log2) (Count)
system.mem_ctrl.readPktSize::2                      0                       # Read request sizes (log2) (Count)
system.mem_ctrl.readPktSize::3                      0                       # Read request sizes (log2) (Count)
system.mem_ctrl.readPktSize::4                      0                       # Read request sizes (log2) (Count)
system.mem_ctrl.readPktSize::5                      0                       # Read request sizes (log2) (Count)
system.mem_ctrl.readPktSize::6                1248748                       # Read request sizes (log2) (Count)
system.mem_ctrl.writePktSize::0                     0                       # Write request sizes (log2) (Count)
system.mem_ctrl.writePktSize::1                     0                       # Write request sizes (log2) (Count)
system.mem_ctrl.writePktSize::2                     0                       # Write request sizes (log2) (Count)
system.mem_ctrl.writePktSize::3                     0                       # Write request sizes (log2) (Count)
system.mem_ctrl.writePktSize::4                     0                       # Write request sizes (log2) (Count)
system.mem_ctrl.writePktSize::5                     0                       # Write request sizes (log2) (Count)
system.mem_ctrl.writePktSize::6                973071                       # Write request sizes (log2) (Count)
system.mem_ctrl.rdQLenPdf::0                  1248659                       # What read queue length does an incoming req see (Count)
system.mem_ctrl.rdQLenPdf::1                        1                       # What read queue length does an incoming req see (Count)
system.mem_ctrl.rdQLenPdf::2                        0                       # What read queue length does an incoming req see (Count)
system.mem_ctrl.rdQLenPdf::3                        0                       # What read queue length does an incoming req see (Count)
system.mem_ctrl.rdQLenPdf::4                        0                       # What read queue length does an incoming req see (Count)
system.mem_ctrl.rdQLenPdf::5                        0                       # What read queue length does an incoming req see (Count)
system.mem_ctrl.rdQLenPdf::6                        0                       # What read queue length does an incoming req see (Count)
system.mem_ctrl.rdQLenPdf::7                        0                       # What read queue length does an incoming req see (Count)
system.mem_ctrl.rdQLenPdf::8                        0                       # What read queue length does an incoming req see (Count)
system.mem_ctrl.rdQLenPdf::9                        0                       # What read queue length does an incoming req see (Count)
system.mem_ctrl.rdQLenPdf::10                       0                       # What read queue length does an incoming req see (Count)
system.mem_ctrl.rdQLenPdf::11                       0                       # What read queue length does an incoming req see (Count)
system.mem_ctrl.rdQLenPdf::12                       0                       # What read queue length does an incoming req see (Count)
system.mem_ctrl.rdQLenPdf::13                       0                       # What read queue length does an incoming req see (Count)
system.mem_ctrl.rdQLenPdf::14                       0                       # What read queue length does an incoming req see (Count)
system.mem_ctrl.rdQLenPdf::15                       0                       # What read queue length does an incoming req see (Count)
system.mem_ctrl.rdQLenPdf::16                       0                       # What read queue length does an incoming req see (Count)
system.mem_ctrl.rdQLenPdf::17                       0                       # What read queue length does an incoming req see (Count)
system.mem_ctrl.rdQLenPdf::18                       0                       # What read queue length does an incoming req see (Count)
system.mem_ctrl.rdQLenPdf::19                       0                       # What read queue length does an incoming req see (Count)
system.mem_ctrl.rdQLenPdf::20                       0                       # What read queue length does an incoming req see (Count)
system.mem_ctrl.rdQLenPdf::21                       0                       # What read queue length does an incoming req see (Count)
system.mem_ctrl.rdQLenPdf::22                       0                       # What read queue length does an incoming req see (Count)
system.mem_ctrl.rdQLenPdf::23                       0                       # What read queue length does an incoming req see (Count)
system.mem_ctrl.rdQLenPdf::24                       0                       # What read queue length does an incoming req see (Count)
system.mem_ctrl.rdQLenPdf::25                       0                       # What read queue length does an incoming req see (Count)
system.mem_ctrl.rdQLenPdf::26                       0                       # What read queue length does an incoming req see (Count)
system.mem_ctrl.rdQLenPdf::27                       0                       # What read queue length does an incoming req see (Count)
system.mem_ctrl.rdQLenPdf::28                       0                       # What read queue length does an incoming req see (Count)
system.mem_ctrl.rdQLenPdf::29                       0                       # What read queue length does an incoming req see (Count)
system.mem_ctrl.rdQLenPdf::30                       0                       # What read queue length does an incoming req see (Count)
system.mem_ctrl.rdQLenPdf::31                       0                       # What read queue length does an incoming req see (Count)
system.mem_ctrl.wrQLenPdf::0                        1                       # What write queue length does an incoming req see (Count)
system.mem_ctrl.wrQLenPdf::1                        1                       # What write queue length does an incoming req see (Count)
system.mem_ctrl.wrQLenPdf::2                        1                       # What write queue length does an incoming req see (Count)
system.mem_ctrl.wrQLenPdf::3                        1                       # What write queue length does an incoming req see (Count)
system.mem_ctrl.wrQLenPdf::4                        1                       # What write queue length does an incoming req see (Count)
system.mem_ctrl.wrQLenPdf::5                        1                       # What write queue length does an incoming req see (Count)
system.mem_ctrl.wrQLenPdf::6                        1                       # What write queue length does an incoming req see (Count)
system.mem_ctrl.wrQLenPdf::7                        1                       # What write queue length does an incoming req see (Count)
system.mem_ctrl.wrQLenPdf::8                        1                       # What write queue length does an incoming req see (Count)
system.mem_ctrl.wrQLenPdf::9                        1                       # What write queue length does an incoming req see (Count)
system.mem_ctrl.wrQLenPdf::10                       1                       # What write queue length does an incoming req see (Count)
system.mem_ctrl.wrQLenPdf::11                       1                       # What write queue length does an incoming req see (Count)
system.mem_ctrl.wrQLenPdf::12                       1                       # What write queue length does an incoming req see (Count)
system.mem_ctrl.wrQLenPdf::13                       1                       # What write queue length does an incoming req see (Count)
system.mem_ctrl.wrQLenPdf::14                       1                       # What write queue length does an incoming req see (Count)
system.mem_ctrl.wrQLenPdf::15                   53106                       # What write queue length does an incoming req see (Count)
system.mem_ctrl.wrQLenPdf::16                   53375                       # What write queue length does an incoming req see (Count)
system.mem_ctrl.wrQLenPdf::17                   54159                       # What write queue length does an incoming req see (Count)
system.mem_ctrl.wrQLenPdf::18                   54161                       # What write queue length does an incoming req see (Count)
system.mem_ctrl.wrQLenPdf::19                   54159                       # What write queue length does an incoming req see (Count)
system.mem_ctrl.wrQLenPdf::20                   54159                       # What write queue length does an incoming req see (Count)
system.mem_ctrl.wrQLenPdf::21                   54160                       # What write queue length does an incoming req see (Count)
system.mem_ctrl.wrQLenPdf::22                   54168                       # What write queue length does an incoming req see (Count)
system.mem_ctrl.wrQLenPdf::23                   54187                       # What write queue length does an incoming req see (Count)
system.mem_ctrl.wrQLenPdf::24                   54158                       # What write queue length does an incoming req see (Count)
system.mem_ctrl.wrQLenPdf::25                   54158                       # What write queue length does an incoming req see (Count)
system.mem_ctrl.wrQLenPdf::26                   54158                       # What write queue length does an incoming req see (Count)
system.mem_ctrl.wrQLenPdf::27                   54158                       # What write queue length does an incoming req see (Count)
system.mem_ctrl.wrQLenPdf::28                   54158                       # What write queue length does an incoming req see (Count)
system.mem_ctrl.wrQLenPdf::29                   54158                       # What write queue length does an incoming req see (Count)
system.mem_ctrl.wrQLenPdf::30                   54158                       # What write queue length does an incoming req see (Count)
system.mem_ctrl.wrQLenPdf::31                   54158                       # What write queue length does an incoming req see (Count)
system.mem_ctrl.wrQLenPdf::32                   54158                       # What write queue length does an incoming req see (Count)
system.mem_ctrl.wrQLenPdf::33                       0                       # What write queue length does an incoming req see (Count)
system.mem_ctrl.wrQLenPdf::34                       0                       # What write queue length does an incoming req see (Count)
system.mem_ctrl.wrQLenPdf::35                       0                       # What write queue length does an incoming req see (Count)
system.mem_ctrl.wrQLenPdf::36                       0                       # What write queue length does an incoming req see (Count)
system.mem_ctrl.wrQLenPdf::37                       0                       # What write queue length does an incoming req see (Count)
system.mem_ctrl.wrQLenPdf::38                       0                       # What write queue length does an incoming req see (Count)
system.mem_ctrl.wrQLenPdf::39                       0                       # What write queue length does an incoming req see (Count)
system.mem_ctrl.wrQLenPdf::40                       0                       # What write queue length does an incoming req see (Count)
system.mem_ctrl.wrQLenPdf::41                       0                       # What write queue length does an incoming req see (Count)
system.mem_ctrl.wrQLenPdf::42                       0                       # What write queue length does an incoming req see (Count)
system.mem_ctrl.wrQLenPdf::43                       0                       # What write queue length does an incoming req see (Count)
system.mem_ctrl.wrQLenPdf::44                       0                       # What write queue length does an incoming req see (Count)
system.mem_ctrl.wrQLenPdf::45                       0                       # What write queue length does an incoming req see (Count)
system.mem_ctrl.wrQLenPdf::46                       0                       # What write queue length does an incoming req see (Count)
system.mem_ctrl.wrQLenPdf::47                       0                       # What write queue length does an incoming req see (Count)
system.mem_ctrl.wrQLenPdf::48                       0                       # What write queue length does an incoming req see (Count)
system.mem_ctrl.wrQLenPdf::49                       0                       # What write queue length does an incoming req see (Count)
system.mem_ctrl.wrQLenPdf::50                       0                       # What write queue length does an incoming req see (Count)
system.mem_ctrl.wrQLenPdf::51                       0                       # What write queue length does an incoming req see (Count)
system.mem_ctrl.wrQLenPdf::52                       0                       # What write queue length does an incoming req see (Count)
system.mem_ctrl.wrQLenPdf::53                       0                       # What write queue length does an incoming req see (Count)
system.mem_ctrl.wrQLenPdf::54                       0                       # What write queue length does an incoming req see (Count)
system.mem_ctrl.wrQLenPdf::55                       0                       # What write queue length does an incoming req see (Count)
system.mem_ctrl.wrQLenPdf::56                       0                       # What write queue length does an incoming req see (Count)
system.mem_ctrl.wrQLenPdf::57                       0                       # What write queue length does an incoming req see (Count)
system.mem_ctrl.wrQLenPdf::58                       0                       # What write queue length does an incoming req see (Count)
system.mem_ctrl.wrQLenPdf::59                       0                       # What write queue length does an incoming req see (Count)
system.mem_ctrl.wrQLenPdf::60                       0                       # What write queue length does an incoming req see (Count)
system.mem_ctrl.wrQLenPdf::61                       0                       # What write queue length does an incoming req see (Count)
system.mem_ctrl.wrQLenPdf::62                       0                       # What write queue length does an incoming req see (Count)
system.mem_ctrl.wrQLenPdf::63                       0                       # What write queue length does an incoming req see (Count)
system.mem_ctrl.rdPerTurnAround::samples        54158                       # Reads before turning the bus around for writes (Count)
system.mem_ctrl.rdPerTurnAround::mean       23.055837                       # Reads before turning the bus around for writes (Count)
system.mem_ctrl.rdPerTurnAround::gmean      19.159917                       # Reads before turning the bus around for writes (Count)
system.mem_ctrl.rdPerTurnAround::stdev      45.112303                       # Reads before turning the bus around for writes (Count)
system.mem_ctrl.rdPerTurnAround::0-127          53633     99.03%     99.03% # Reads before turning the bus around for writes (Count)
system.mem_ctrl.rdPerTurnAround::128-255           40      0.07%     99.10% # Reads before turning the bus around for writes (Count)
system.mem_ctrl.rdPerTurnAround::256-383           77      0.14%     99.25% # Reads before turning the bus around for writes (Count)
[...]
system.mem_ctrl.dram.bytesInstRead::total        45184                       # Number of instructions bytes read from this memory (Byte)
system.mem_ctrl.dram.bytesWritten::writebacks     62276544                       # Number of bytes written to this memory (Byte)
system.mem_ctrl.dram.bytesWritten::total     62276544                       # Number of bytes written to this memory (Byte)
system.mem_ctrl.dram.numReads::cpu.inst           706                       # Number of read requests responded to by this memory (Count)
system.mem_ctrl.dram.numReads::cpu.data       1248042                       # Number of read requests responded to by this memory (Count)
system.mem_ctrl.dram.numReads::total          1248748                       # Number of read requests responded to by this memory (Count)
system.mem_ctrl.dram.numWrites::writebacks       973071                       # Number of write requests responded to by this memory (Count)
system.mem_ctrl.dram.numWrites::total          973071                       # Number of write requests responded to by this memory (Count)
system.mem_ctrl.dram.bwRead::cpu.inst           47427                       # Total read bandwidth from this memory ((Byte/Second))
system.mem_ctrl.dram.bwRead::cpu.data        83840177                       # Total read bandwidth from this memory ((Byte/Second))
system.mem_ctrl.dram.bwRead::total           83887604                       # Total read bandwidth from this memory ((Byte/Second))
system.mem_ctrl.dram.bwInstRead::cpu.inst        47427                       # Instruction read bandwidth from this memory ((Byte/Second))
system.mem_ctrl.dram.bwInstRead::total          47427                       # Instruction read bandwidth from this memory ((Byte/Second))
system.mem_ctrl.dram.bwWrite::writebacks     65368349                       # Write bandwidth from this memory ((Byte/Second))
system.mem_ctrl.dram.bwWrite::total          65368349                       # Write bandwidth from this memory ((Byte/Second))
system.mem_ctrl.dram.bwTotal::writebacks     65368349                       # Total bandwidth to/from this memory ((Byte/Second))
system.mem_ctrl.dram.bwTotal::cpu.inst          47427                       # Total bandwidth to/from this memory ((Byte/Second))
system.mem_ctrl.dram.bwTotal::cpu.data       83840177                       # Total bandwidth to/from this memory ((Byte/Second))
system.mem_ctrl.dram.bwTotal::total         149255952                       # Total bandwidth to/from this memory ((Byte/Second))
system.mem_ctrl.dram.readBursts               1248660                       # Number of DRAM read bursts (Count)
system.mem_ctrl.dram.writeBursts               973054                       # Number of DRAM write bursts (Count)
system.mem_ctrl.dram.perBankRdBursts::0         77872                       # Per bank write bursts (Count)
system.mem_ctrl.dram.perBankRdBursts::1         77888                       # Per bank write bursts (Count)
system.mem_ctrl.dram.perBankRdBursts::2         77854                       # Per bank write bursts (Count)
system.mem_ctrl.dram.perBankRdBursts::3         78047                       # Per bank write bursts (Count)
system.mem_ctrl.dram.perBankRdBursts::4         78020                       # Per bank write bursts (Count)
system.mem_ctrl.dram.perBankRdBursts::5         77976                       # Per bank write bursts (Count)
system.mem_ctrl.dram.perBankRdBursts::6         80268                       # Per bank write bursts (Count)
system.mem_ctrl.dram.perBankRdBursts::7         78376                       # Per bank write bursts (Count)
system.mem_ctrl.dram.perBankRdBursts::8         77739                       # Per bank write bursts (Count)
system.mem_ctrl.dram.perBankRdBursts::9         77826                       # Per bank write bursts (Count)
system.mem_ctrl.dram.perBankRdBursts::10        77905                       # Per bank write bursts (Count)
system.mem_ctrl.dram.perBankRdBursts::11        77811                       # Per bank write bursts (Count)
system.mem_ctrl.dram.perBankRdBursts::12        77777                       # Per bank write bursts (Count)
system.mem_ctrl.dram.perBankRdBursts::13        77758                       # Per bank write bursts (Count)
system.mem_ctrl.dram.perBankRdBursts::14        77767                       # Per bank write bursts (Count)
system.mem_ctrl.dram.perBankRdBursts::15        77776                       # Per bank write bursts (Count)
system.mem_ctrl.dram.perBankWrBursts::0         60952                       # Per bank write bursts (Count)
system.mem_ctrl.dram.perBankWrBursts::1         61039                       # Per bank write bursts (Count)
system.mem_ctrl.dram.perBankWrBursts::2         60973                       # Per bank write bursts (Count)
system.mem_ctrl.dram.perBankWrBursts::3         61079                       # Per bank write bursts (Count)
system.mem_ctrl.dram.perBankWrBursts::4         61132                       # Per bank write bursts (Count)
system.mem_ctrl.dram.perBankWrBursts::5         61146                       # Per bank write bursts (Count)
system.mem_ctrl.dram.perBankWrBursts::6         62546                       # Per bank write bursts (Count)
system.mem_ctrl.dram.perBankWrBursts::7         60820                       # Per bank write bursts (Count)
system.mem_ctrl.dram.perBankWrBursts::8         60316                       # Per bank write bursts (Count)
system.mem_ctrl.dram.perBankWrBursts::9         60370                       # Per bank write bursts (Count)
system.mem_ctrl.dram.perBankWrBursts::10        60493                       # Per bank write bursts (Count)
system.mem_ctrl.dram.perBankWrBursts::11        60430                       # Per bank write bursts (Count)
system.mem_ctrl.dram.perBankWrBursts::12        60357                       # Per bank write bursts (Count)
system.mem_ctrl.dram.perBankWrBursts::13        60348                       # Per bank write bursts (Count)
system.mem_ctrl.dram.perBankWrBursts::14        60391                       # Per bank write bursts (Count)
system.mem_ctrl.dram.perBankWrBursts::15        60662                       # Per bank write bursts (Count)
system.mem_ctrl.dram.totQLat              10267644250                       # Total ticks spent queuing (Tick)
system.mem_ctrl.dram.totBusLat             6243300000                       # Total ticks spent in databus transfers (Tick)
system.mem_ctrl.dram.totMemAccLat         33680019250                       # Total ticks spent from burst creation until serviced by the DRAM (Tick)
system.mem_ctrl.dram.avgQLat                  8222.93                       # Average queueing delay per DRAM burst ((Tick/Count))
system.mem_ctrl.dram.avgBusLat                5000.00                       # Average bus latency per DRAM burst ((Tick/Count))
system.mem_ctrl.dram.avgMemAccLat            26972.93                       # Average memory access latency per DRAM burst ((Tick/Count))
system.mem_ctrl.dram.readRowHits              1004574                       # Number of row buffer hits during reads (Count)
system.mem_ctrl.dram.writeRowHits              847701                       # Number of row buffer hits during writes (Count)
system.mem_ctrl.dram.readRowHitRate             80.45                       # Row buffer hit rate for reads (Ratio)
system.mem_ctrl.dram.writeRowHitRate            87.12                       # Row buffer hit rate for writes (Ratio)
system.mem_ctrl.dram.bytesPerActivate::samples       369428                       # Bytes accessed per row activation (Byte)
system.mem_ctrl.dram.bytesPerActivate::mean   384.882489                       # Bytes accessed per row activation (Byte)
system.mem_ctrl.dram.bytesPerActivate::gmean   239.102926                       # Bytes accessed per row activation (Byte)
system.mem_ctrl.dram.bytesPerActivate::stdev   353.515889                       # Bytes accessed per row activation (Byte)
system.mem_ctrl.dram.bytesPerActivate::0-127        94936     25.70%     25.70% # Bytes accessed per row activation (Byte)
system.mem_ctrl.dram.bytesPerActivate::128-255        86755     23.48%     49.18% # Bytes accessed per row activation (Byte)
system.mem_ctrl.dram.bytesPerActivate::256-383        55682     15.07%     64.25% # Bytes accessed per row activation (Byte)
system.mem_ctrl.dram.bytesPerActivate::384-511        16446      4.45%     68.71% # Bytes accessed per row activation (Byte)
system.mem_ctrl.dram.bytesPerActivate::512-639        16071      4.35%     73.06% # Bytes accessed per row activation (Byte)
system.mem_ctrl.dram.bytesPerActivate::640-767        19210      5.20%     78.26% # Bytes accessed per row activation (Byte)
system.mem_ctrl.dram.bytesPerActivate::768-895         9036      2.45%     80.70% # Bytes accessed per row activation (Byte)
system.mem_ctrl.dram.bytesPerActivate::896-1023        13474      3.65%     84.35% # Bytes accessed per row activation (Byte)
system.mem_ctrl.dram.bytesPerActivate::1024-1151        57818     15.65%    100.00% # Bytes accessed per row activation (Byte)
system.mem_ctrl.dram.bytesPerActivate::total       369428                       # Bytes accessed per row activation (Byte)
system.mem_ctrl.dram.bytesRead               79914240                       # Total bytes read (Byte)
system.mem_ctrl.dram.bytesWritten            62275456                       # Total bytes written (Byte)
system.mem_ctrl.dram.avgRdBW                83.881692                       # Average DRAM read bandwidth in MiBytes/s ((Byte/Second))
system.mem_ctrl.dram.avgWrBW                65.367207                       # Average DRAM write bandwidth in MiBytes/s ((Byte/Second))
system.mem_ctrl.dram.peakBW                  12800.00                       # Theoretical peak bandwidth in MiByte/s ((Byte/Second))
system.mem_ctrl.dram.busUtil                     1.17                       # Data bus utilization in percentage (Ratio)
system.mem_ctrl.dram.busUtilRead                 0.66                       # Data bus utilization in percentage for reads (Ratio)
system.mem_ctrl.dram.busUtilWrite                0.51                       # Data bus utilization in percentage for writes (Ratio)
system.mem_ctrl.dram.pageHitRate                83.37                       # Row buffer hit rate, read and write combined (Ratio)
system.mem_ctrl.dram.power_state.pwrStateResidencyTicks::UNDEFINED 952701810000                       # Cumulative time (in ticks) in various power states (Tick)
system.mem_ctrl.dram.rank0.actEnergy       1271591160                       # Energy for activate commands per rank (pJ) (Joule)
system.mem_ctrl.dram.rank0.preEnergy        675851550                       # Energy for precharge commands per rank (pJ) (Joule)
system.mem_ctrl.dram.rank0.readEnergy      4471789140                       # Energy for read commands per rank (pJ) (Joule)
system.mem_ctrl.dram.rank0.writeEnergy     2556166140                       # Energy for write commands per rank (pJ) (Joule)
system.mem_ctrl.dram.rank0.refreshEnergy 75204891840.000015                       # Energy for refresh commands per rank (pJ) (Joule)
system.mem_ctrl.dram.rank0.actBackEnergy 243131045010                       # Energy for active background per rank (pJ) (Joule)
system.mem_ctrl.dram.rank0.preBackEnergy 161095562400                       # Energy for precharge background per rank (pJ) (Joule)
system.mem_ctrl.dram.rank0.actPowerDownEnergy            0                       # Energy for active power-down per rank (pJ) (Joule)
system.mem_ctrl.dram.rank0.prePowerDownEnergy            0                       # Energy for precharge power-down per rank (pJ) (Joule)
system.mem_ctrl.dram.rank0.selfRefreshEnergy            0                       # Energy for self refresh per rank (pJ) (Joule)
system.mem_ctrl.dram.rank0.totalEnergy   488406897240                       # Total energy per rank (pJ) (Joule)
system.mem_ctrl.dram.rank0.averagePower    512.654529                       # Core power per rank (mW) (Watt)
system.mem_ctrl.dram.rank0.totalIdleTime            0                       # Total Idle time Per DRAM Rank (Tick)
system.mem_ctrl.dram.rank0.pwrStateTime::IDLE 416234174750                       # Time in different power states (Tick)
system.mem_ctrl.dram.rank0.pwrStateTime::REF  31812560000                       # Time in different power states (Tick)
system.mem_ctrl.dram.rank0.pwrStateTime::SREF            0                       # Time in different power states (Tick)
system.mem_ctrl.dram.rank0.pwrStateTime::PRE_PDN            0                       # Time in different power states (Tick)
system.mem_ctrl.dram.rank0.pwrStateTime::ACT 504655075250                       # Time in different power states (Tick)
system.mem_ctrl.dram.rank0.pwrStateTime::ACT_PDN            0                       # Time in different power states (Tick)
system.mem_ctrl.dram.rank1.actEnergy       1366203300                       # Energy for activate commands per rank (pJ) (Joule)
system.mem_ctrl.dram.rank1.preEnergy        726127710                       # Energy for precharge commands per rank (pJ) (Joule)
system.mem_ctrl.dram.rank1.readEnergy      4443643260                       # Energy for read commands per rank (pJ) (Joule)
system.mem_ctrl.dram.rank1.writeEnergy     2523175740                       # Energy for write commands per rank (pJ) (Joule)
system.mem_ctrl.dram.rank1.refreshEnergy 75204891840.000015                       # Energy for refresh commands per rank (pJ) (Joule)
system.mem_ctrl.dram.rank1.actBackEnergy 247661050470                       # Energy for active background per rank (pJ) (Joule)
system.mem_ctrl.dram.rank1.preBackEnergy 157280820960                       # Energy for precharge background per rank (pJ) (Joule)
system.mem_ctrl.dram.rank1.actPowerDownEnergy            0                       # Energy for active power-down per rank (pJ) (Joule)
system.mem_ctrl.dram.rank1.prePowerDownEnergy            0                       # Energy for precharge power-down per rank (pJ) (Joule)
system.mem_ctrl.dram.rank1.selfRefreshEnergy            0                       # Energy for self refresh per rank (pJ) (Joule)
system.mem_ctrl.dram.rank1.totalEnergy   489205913280                       # Total energy per rank (pJ) (Joule)
system.mem_ctrl.dram.rank1.averagePower    513.493213                       # Core power per rank (mW) (Watt)
system.mem_ctrl.dram.rank1.totalIdleTime            0                       # Total Idle time Per DRAM Rank (Tick)
system.mem_ctrl.dram.rank1.pwrStateTime::IDLE 406277270750                       # Time in different power states (Tick)
system.mem_ctrl.dram.rank1.pwrStateTime::REF  31812560000                       # Time in different power states (Tick)
system.mem_ctrl.dram.rank1.pwrStateTime::SREF            0                       # Time in different power states (Tick)
system.mem_ctrl.dram.rank1.pwrStateTime::PRE_PDN            0                       # Time in different power states (Tick)
system.mem_ctrl.dram.rank1.pwrStateTime::ACT 514611979250                       # Time in different power states (Tick)
system.mem_ctrl.dram.rank1.pwrStateTime::ACT_PDN            0                       # Time in different power states (Tick)
system.mem_ctrl.power_state.pwrStateResidencyTicks::UNDEFINED 952701810000                       # Cumulative time (in ticks) in various power states (Tick)
system.membus.transDist::ReadResp              954312                       # Transaction distribution (Count)
system.membus.transDist::WritebackDirty        973071                       # Transaction distribution (Count)
system.membus.transDist::CleanEvict            271422                       # Transaction distribution (Count)
system.membus.transDist::ReadExReq             294436                       # Transaction distribution (Count)
system.membus.transDist::ReadExResp            294436                       # Transaction distribution (Count)
system.membus.transDist::ReadSharedReq         954312                       # Transaction distribution (Count)
system.membus.pktCount_system.l2cache.mem_side_port::system.mem_ctrl.port      3741989                       # Packet count per connected requestor and responder (Count)
system.membus.pktCount::total                 3741989                       # Packet count per connected requestor and responder (Count)
system.membus.pktSize_system.l2cache.mem_side_port::system.mem_ctrl.port    142196416                       # Cumulative packet size per connected requestor and responder (Byte)
system.membus.pktSize::total                142196416                       # Cumulative packet size per connected requestor and responder (Byte)
system.membus.snoops                                0                       # Total snoops (Count)
system.membus.snoopTraffic                          0                       # Total snoop traffic (Byte)
system.membus.snoopFanout::samples            1248748                       # Request fanout histogram (Count)
system.membus.snoopFanout::mean                     0                       # Request fanout histogram (Count)
system.membus.snoopFanout::stdev                    0                       # Request fanout histogram (Count)
system.membus.snoopFanout::underflows               0      0.00%      0.00% # Request fanout histogram (Count)
system.membus.snoopFanout::0                  1248748    100.00%    100.00% # Request fanout histogram (Count)
system.membus.snoopFanout::1                        0      0.00%    100.00% # Request fanout histogram (Count)
system.membus.snoopFanout::overflows                0      0.00%    100.00% # Request fanout histogram (Count)
system.membus.snoopFanout::min_value                0                       # Request fanout histogram (Count)
system.membus.snoopFanout::max_value                0                       # Request fanout histogram (Count)
system.membus.snoopFanout::total              1248748                       # Request fanout histogram (Count)
system.membus.power_state.pwrStateResidencyTicks::UNDEFINED 952701810000                       # Cumulative time (in ticks) in various power states (Tick)
system.membus.reqLayer0.occupancy          6385525000                       # Layer occupancy (ticks) (Tick)
system.membus.reqLayer0.utilization               0.0                       # Layer utilization (Ratio)
system.membus.respLayer0.occupancy         6619693250                       # Layer occupancy (ticks) (Tick)
system.membus.respLayer0.utilization              0.0                       # Layer utilization (Ratio)
system.membus.snoop_filter.totRequests        2493241                       # Total number of requests made to the snoop filter. (Count)
system.membus.snoop_filter.hitSingleRequests      1244493                       # Number of requests hitting in the snoop filter with a single holder of the requested data. (Count)
system.membus.snoop_filter.hitMultiRequests            0                       # Number of requests hitting in the snoop filter with multiple (>1) holders of the requested data. (Count)
system.membus.snoop_filter.totSnoops                0                       # Total number of snoops made to the snoop filter. (Count)
system.membus.snoop_filter.hitSingleSnoops            0                       # Number of snoops hitting in the snoop filter with a single holder of the requested data. (Count)
system.membus.snoop_filter.hitMultiSnoops            0                       # Number of snoops hitting in the snoop filter with multiple (>1) holders of the requested data. (Count)
system.workload.inst.arm                            0                       # number of arm instructions executed (Count)
system.workload.inst.quiesce                        0                       # number of quiesce instructions executed (Count)

---------- End Simulation Statistics   ----------
