
---------- Begin Simulation Statistics ----------
simSeconds                                   1.515671                       # Number of seconds simulated (Second)
simTicks                                 1515671023000                       # Number of ticks simulated (Tick)
finalTick                                1515671023000                       # Number of ticks from beginning of simulation (restored from checkpoints and never reset) (Tick)
simFreq                                  1000000000000                       # The number of ticks per simulated second ((Tick/Second))
hostSeconds                                    283.52                       # Real time elapsed on the host (Second)
hostTickRate                               5345853740                       # The number of ticks simulated per host second (ticks/s) ((Tick/Second))
hostMemory                                    8548020                       # Number of bytes of host memory used (Byte)
simInsts                                    465509073                       # Number of instructions simulated (Count)
simOps                                      465509073                       # Number of ops (including micro ops) simulated (Count)
hostInstRate                                  1641875                       # Simulator instruction rate (inst/s) ((Count/Second))
hostOpRate                                    1641875                       # Simulator op (including micro ops) rate (op/s) ((Count/Second))
system.clk_domain.clock                          1000                       # Clock period in ticks (Tick)
system.clk_domain.voltage_domain.voltage            1                       # Voltage in Volts (Volt)
system.cpu.numCycles                       1515671023                       # Number of cpu cycles simulated (Cycle)
system.cpu.numWorkItemsStarted                      0                       # Number of work items this cpu started (Count)
system.cpu.numWorkItemsCompleted                    0                       # Number of work items this cpu completed (Count)
system.cpu.dcache.demandHits::cpu.data      168897078                       # number of demand (read+write) hits (Count)
system.cpu.dcache.demandHits::total         168897078                       # number of demand (read+write) hits (Count)
system.cpu.dcache.overallHits::cpu.data     168897078                       # number of overall hits (Count)
system.cpu.dcache.overallHits::total        168897078                       # number of overall hits (Count)
system.cpu.dcache.demandMisses::cpu.data      2790249                       # number of demand (read+write) misses (Count)
system.cpu.dcache.demandMisses::total         2790249                       # number of demand (read+write) misses (Count)
system.cpu.dcache.overallMisses::cpu.data      2790249                       # number of overall misses (Count)
system.cpu.dcache.overallMisses::total        2790249                       # number of overall misses (Count)
system.cpu.dcache.demandMissLatency::cpu.data 246776122000                       # number of demand (read+write) miss ticks (Tick)
system.cpu.dcache.demandMissLatency::total 246776122000                       # number of demand (read+write) miss ticks (Tick)
system.cpu.dcache.overallMissLatency::cpu.data 246776122000                       # number of overall miss ticks (Tick)
system.cpu.dcache.overallMissLatency::total 246776122000                       # number of overall miss ticks (Tick)
system.cpu.dcache.demandAccesses::cpu.data    171687327                       # number of demand (read+write) accesses (Count)
system.cpu.dcache.demandAccesses::total     171687327                       # number of demand (read+write) accesses (Count)
system.cpu.dcache.overallAccesses::cpu.data    171687327                       # number of overall (read+write) accesses (Count)
system.cpu.dcache.overallAccesses::total    171687327                       # number of overall (read+write) accesses (Count)
system.cpu.dcache.demandMissRate::cpu.data     0.016252                       # miss rate for demand accesses (Ratio)
system.cpu.dcache.demandMissRate::total      0.016252                       # miss rate for demand accesses (Ratio)
system.cpu.dcache.overallMissRate::cpu.data     0.016252                       # miss rate for overall accesses (Ratio)
system.cpu.dcache.overallMissRate::total     0.016252                       # miss rate for overall accesses (Ratio)
system.cpu.dcache.demandAvgMissLatency::cpu.data 88442.329699                       # average overall miss latency ((Cycle/Count))
system.cpu.dcache.demandAvgMissLatency::total 88442.329699                       # average overall miss latency ((Cycle/Count))
system.cpu.dcache.overallAvgMissLatency::cpu.data 88442.329699                       # average overall miss latency ((Cycle/Count))
system.cpu.dcache.overallAvgMissLatency::total 88442.329699                       # average overall miss latency ((Cycle/Count))
system.cpu.dcache.blockedCycles::no_mshrs            0                       # number of cycles access was blocked (Cycle)
system.cpu.dcache.blockedCycles::no_targets            0                       # number of cycles access was blocked (Cycle)
system.cpu.dcache.blockedCauses::no_mshrs            0                       # number of times access was blocked (Count)
system.cpu.dcache.blockedCauses::no_targets            0                       # number of times access was blocked (Count)
system.cpu.dcache.avgBlocked::no_mshrs            nan                       # average number of cycles each access was blocked ((Cycle/Count))
system.cpu.dcache.avgBlocked::no_targets          nan                       # average number of cycles each access was blocked ((Cycle/Count))
system.cpu.dcache.writebacks::writebacks      2148203                       # number of writebacks (Count)
system.cpu.dcache.writebacks::total           2148203                       # number of writebacks (Count)
system.cpu.dcache.demandMshrMisses::cpu.data      2790249                       # number of demand (read+write) MSHR misses (Count)
system.cpu.dcache.demandMshrMisses::total      2790249                       # number of demand (read+write) MSHR misses (Count)
system.cpu.dcache.overallMshrMisses::cpu.data      2790249                       # number of overall MSHR misses (Count)
system.cpu.dcache.overallMshrMisses::total      2790249                       # number of overall MSHR misses (Count)
system.cpu.dcache.demandMshrMissLatency::cpu.data 241195624000                       # number of demand (read+write) MSHR miss ticks (Tick)
system.cpu.dcache.demandMshrMissLatency::total 241195624000                       # number of demand (read+write) MSHR miss ticks (Tick)
system.cpu.dcache.overallMshrMissLatency::cpu.data 241195624000                       # number of overall MSHR miss ticks (Tick)
system.cpu.dcache.overallMshrMissLatency::total 241195624000                       # number of overall MSHR miss ticks (Tick)
system.cpu.dcache.demandMshrMissRate::cpu.data     0.016252                       # mshr miss ratio for demand accesses (Ratio)
system.cpu.dcache.demandMshrMissRate::total     0.016252                       # mshr miss ratio for demand accesses (Ratio)
system.cpu.dcache.overallMshrMissRate::cpu.data     0.016252                       # mshr miss ratio for overall accesses (Ratio)
system.cpu.dcache.overallMshrMissRate::total     0.016252                       # mshr miss ratio for overall accesses (Ratio)
system.cpu.dcache.demandAvgMshrMissLatency::cpu.data 86442.329699                       # average overall mshr miss latency ((Cycle/Count))
system.cpu.dcache.demandAvgMshrMissLatency::total 86442.329699                       # average overall mshr miss latency ((Cycle/Count))
system.cpu.dcache.overallAvgMshrMissLatency::cpu.data 86442.329699                       # average overall mshr miss latency ((Cycle/Count))
system.cpu.dcache.overallAvgMshrMissLatency::total 86442.329699                       # average overall mshr miss latency ((Cycle/Count))
system.cpu.dcache.replacements                2789737                       # number of replacements (Count)
system.cpu.dcache.ReadReq.hits::cpu.data    104530455                       # number of ReadReq hits (Count)
system.cpu.dcache.ReadReq.hits::total       104530455                       # number of ReadReq hits (Count)
system.cpu.dcache.ReadReq.misses::cpu.data      2118109                       # number of ReadReq misses (Count)
system.cpu.dcache.ReadReq.misses::total       2118109                       # number of ReadReq misses (Count)
system.cpu.dcache.ReadReq.missLatency::cpu.data 188582171000                       # number of ReadReq miss ticks (Tick)
system.cpu.dcache.ReadReq.missLatency::total 188582171000                       # number of ReadReq miss ticks (Tick)
system.cpu.dcache.ReadReq.accesses::cpu.data    106648564                       # number of ReadReq accesses(hits+misses) (Count)
system.cpu.dcache.ReadReq.accesses::total    106648564                       # number of ReadReq accesses(hits+misses) (Count)
system.cpu.dcache.ReadReq.missRate::cpu.data     0.019861                       # miss rate for ReadReq accesses (Ratio)
system.cpu.dcache.ReadReq.missRate::total     0.019861                       # miss rate for ReadReq accesses (Ratio)
system.cpu.dcache.ReadReq.avgMissLatency::cpu.data 89033.270242                       # average ReadReq miss latency ((Tick/Count))
system.cpu.dcache.ReadReq.avgMissLatency::total 89033.270242                       # average ReadReq miss latency ((Tick/Count))
system.cpu.dcache.ReadReq.mshrMisses::cpu.data      2118109                       # number of ReadReq MSHR misses (Count)
system.cpu.dcache.ReadReq.mshrMisses::total      2118109                       # number of ReadReq MSHR misses (Count)
system.cpu.dcache.ReadReq.mshrMissLatency::cpu.data 184345953000                       # number of ReadReq MSHR miss ticks (Tick)
system.cpu.dcache.ReadReq.mshrMissLatency::total 184345953000                       # number of ReadReq MSHR miss ticks (Tick)
system.cpu.dcache.ReadReq.mshrMissRate::cpu.data     0.019861                       # mshr miss rate for ReadReq accesses (Ratio)
system.cpu.dcache.ReadReq.mshrMissRate::total     0.019861                       # mshr miss rate for ReadReq accesses (Ratio)
system.cpu.dcache.ReadReq.avgMshrMissLatency::cpu.data 87033.270242                       # average ReadReq mshr miss latency ((Tick/Count))
system.cpu.dcache.ReadReq.avgMshrMissLatency::total 87033.270242                       # average ReadReq mshr miss latency ((Tick/Count))
system.cpu.dcache.WriteReq.hits::cpu.data     64366623                       # number of WriteReq hits (Count)
system.cpu.dcache.WriteReq.hits::total       64366623                       # number of WriteReq hits (Count)
system.cpu.dcache.WriteReq.misses::cpu.data       672140                       # number of WriteReq misses (Count)
system.cpu.dcache.WriteReq.misses::total       672140                       # number of WriteReq misses (Count)
system.cpu.dcache.WriteReq.missLatency::cpu.data  58193951000                       # number of WriteReq miss ticks (Tick)
system.cpu.dcache.WriteReq.missLatency::total  58193951000                       # number of WriteReq miss ticks (Tick)
system.cpu.dcache.WriteReq.accesses::cpu.data     65038763                       # number of WriteReq accesses(hits+misses) (Count)
system.cpu.dcache.WriteReq.accesses::total     65038763                       # number of WriteReq accesses(hits+misses) (Count)
system.cpu.dcache.WriteReq.missRate::cpu.data     0.010334                       # miss rate for WriteReq accesses (Ratio)
system.cpu.dcache.WriteReq.missRate::total     0.010334                       # miss rate for WriteReq accesses (Ratio)
system.cpu.dcache.WriteReq.avgMissLatency::cpu.data 86580.103847                       # average WriteReq miss latency ((Tick/Count))
system.cpu.dcache.WriteReq.avgMissLatency::total 86580.103847                       # average WriteReq miss latency ((Tick/Count))
system.cpu.dcache.WriteReq.mshrMisses::cpu.data       672140                       # number of WriteReq MSHR misses (Count)
system.cpu.dcache.WriteReq.mshrMisses::total       672140                       # number of WriteReq MSHR misses (Count)
system.cpu.dcache.WriteReq.mshrMissLatency::cpu.data  56849671000                       # number of WriteReq MSHR miss ticks (Tick)
system.cpu.dcache.WriteReq.mshrMissLatency::total  56849671000                       # number of WriteReq MSHR miss ticks (Tick)
system.cpu.dcache.WriteReq.mshrMissRate::cpu.data     0.010334                       # mshr miss rate for WriteReq accesses (Ratio)
system.cpu.dcache.WriteReq.mshrMissRate::total     0.010334                       # mshr miss rate for WriteReq accesses (Ratio)
system.cpu.dcache.WriteReq.avgMshrMissLatency::cpu.data 84580.103847                       # average WriteReq mshr miss latency ((Tick/Count))
system.cpu.dcache.WriteReq.avgMshrMissLatency::total 84580.103847                       # average WriteReq mshr miss latency ((Tick/Count))
system.cpu.dcache.power_state.pwrStateResidencyTicks::UNDEFINED 1515671023000                       # Cumulative time (in ticks) in various power states (Tick)
system.cpu.dcache.tags.tagsInUse           511.901293                       # Average ticks per tags in use ((Tick/Count))
system.cpu.dcache.tags.totalRefs            171687327                       # Total number of references to valid blocks. (Count)
system.cpu.dcache.tags.sampledRefs            2790249                       # Sample count of references to valid blocks. (Count)
system.cpu.dcache.tags.avgRefs              61.531185                       # Average number of references to valid blocks. ((Count/Count))
system.cpu.dcache.tags.warmupTick              222000                       # The tick when the warmup percentage was hit. (Tick)
system.cpu.dcache.tags.occupancies::cpu.data   511.901293                       # Average occupied blocks per tick, per requestor ((Count/Tick))
system.cpu.dcache.tags.avgOccs::cpu.data     0.999807                       # Average percentage of cache occupancy ((Ratio/Tick))
system.cpu.dcache.tags.avgOccs::total        0.999807                       # Average percentage of cache occupancy ((Ratio/Tick))
system.cpu.dcache.tags.occupanciesTaskId::1024          512                       # Occupied blocks per task id (Count)
system.cpu.dcache.tags.ageTaskId_1024::0           28                       # Occupied blocks per task id, per block age (Count)
system.cpu.dcache.tags.ageTaskId_1024::1          199                       # Occupied blocks per task id, per block age (Count)
system.cpu.dcache.tags.ageTaskId_1024::2          285                       # Occupied blocks per task id, per block age (Count)
system.cpu.dcache.tags.ratioOccsTaskId::1024            1                       # Ratio of occupied blocks and all blocks, per task id (Ratio)
system.cpu.dcache.tags.tagAccesses          174477576                       # Number of tag accesses (Count)
system.cpu.dcache.tags.dataAccesses         174477576                       # Number of data accesses (Count)
system.cpu.dcache.tags.power_state.pwrStateResidencyTicks::UNDEFINED 1515671023000                       # Cumulative time (in ticks) in various power states (Tick)
system.cpu.exec_context.thread_0.numInsts    465509073                       # Number of instructions committed (Count)
system.cpu.exec_context.thread_0.numOps     465509073                       # Number of ops (including micro ops) committed (Count)
system.cpu.exec_context.thread_0.numIntAluAccesses    458794348                       # Number of integer alu accesses (Count)
system.cpu.exec_context.thread_0.numFpAluAccesses           18                       # Number of float alu accesses (Count)
system.cpu.exec_context.thread_0.numVecAluAccesses            0                       # Number of vector alu accesses (Count)
system.cpu.exec_context.thread_0.numCallsReturns      4013968                       # Number of times a function call or return occured (Count)
system.cpu.exec_context.thread_0.numCondCtrlInsts     61435302                       # Number of instructions that are conditional controls (Count)
system.cpu.exec_context.thread_0.numIntInsts    458794348                       # Number of integer instructions (Count)
system.cpu.exec_context.thread_0.numFpInsts           18                       # Number of float instructions (Count)
system.cpu.exec_context.thread_0.numVecInsts            0                       # Number of vector instructions (Count)
system.cpu.exec_context.thread_0.numIntRegReads    843545577                       # Number of times the integer registers were read (Count)
system.cpu.exec_context.thread_0.numIntRegWrites    411202352                       # Number of times the integer registers were written (Count)
system.cpu.exec_context.thread_0.numFpRegReads           18                       # Number of times the floating registers were read (Count)
system.cpu.exec_context.thread_0.numFpRegWrites            0                       # Number of times the floating registers were written (Count)
system.cpu.exec_context.thread_0.numVecRegReads            0                       # Number of times the vector registers were read (Count)
system.cpu.exec_context.thread_0.numVecRegWrites            0                       # Number of times the vector registers were written (Count)
system.cpu.exec_context.thread_0.numVecPredRegReads            0                       # Number of times the predicate registers were read (Count)
system.cpu.exec_context.thread_0.numVecPredRegWrites            0                       # Number of times the predicate registers were written (Count)
system.cpu.exec_context.thread_0.numMiscRegReads            0                       # Number of times the Misc registers were read (Count)
system.cpu.exec_context.thread_0.numMiscRegWrites            0                       # Number of times the Misc registers were written (Count)
system.cpu.exec_context.thread_0.numMemRefs    171689473                       # Number of memory refs (Count)
system.cpu.exec_context.thread_0.numLoadInsts    106648563                       # Number of load instructions (Count)
system.cpu.exec_context.thread_0.numStoreInsts     65040910                       # Number of store instructions (Count)
system.cpu.exec_context.thread_0.numIdleCycles     0.001000                       # Number of idle cycles (Cycle)
system.cpu.exec_context.thread_0.numBusyCycles 1515671022.999000                       # Number of busy cycles (Cycle)
system.cpu.exec_context.thread_0.notIdleFraction     1.000000                       # Percentage of non-idle cycles (Ratio)
system.cpu.exec_context.thread_0.idleFraction     0.000000                       # Percentage of idle cycles (Ratio)
system.cpu.exec_context.thread_0.numBranches     72165816                       # Number of branches fetched (Count)
system.cpu.exec_context.thread_0.statExecutedInstType::No_OpClass            0      0.00%      0.00% # Class of executed instruction. (Count)
system.cpu.exec_context.thread_0.statExecutedInstType::IntAlu    293821799     63.12%     63.12% # Class of executed instruction. (Count)
system.cpu.exec_context.thread_0.statExecutedInstType::IntMult            0      0.00%     63.12% # Class of executed instruction. (Count)
system.cpu.exec_context.thread_0.statExecutedInstType::IntDiv            0      0.00%     63.12% # Class of executed instruction. (Count)
system.cpu.exec_context.thread_0.statExecutedInstType::FloatAdd            0      0.00%     63.12% # Class of executed instruction. (Count)
system.cpu.exec_context.thread_0.statExecutedInstType::FloatCmp            0      0.00%     63.12% # Class of executed instruction. (Count)
system.cpu.exec_context.thread_0.statExecutedInstType::FloatCvt            0      0.00%     63.12% # Class of executed instruction. (Count)
system.cpu.exec_context.thread_0.statExecutedInstType::FloatMult            0      0.00%     63.12% # Class of executed instruction. (Count)
system.cpu.exec_context.thread_0.statExecutedInstType::FloatMultAcc            0      0.00%     63.12% # Class of executed instruction. (Count)
system.cpu.exec_context.thread_0.statExecutedInstType::FloatDiv            0      0.00%     63.12% # Class of executed instruction. (Count)
system.cpu.exec_context.thread_0.statExecutedInstType::FloatMisc            0      0.00%     63.12% # Class of executed instruction. (Count)
system.cpu.exec_context.thread_0.statExecutedInstType::FloatSqrt            0      0.00%     63.12% # Class of executed instruction. (Count)
system.cpu.exec_context.thread_0.statExecutedInstType::SimdAdd            0      0.00%     63.12% # Class of executed instruction. (Count)
system.cpu.exec_context.thread_0.statExecutedInstType::SimdAddAcc            0      0.00%     63.12% # Class of executed instruction. (Count)
system.cpu.exec_context.thread_0.statExecutedInstType::SimdAlu            0      0.00%     63.12% # Class of executed instruction. (Count)
system.cpu.exec_context.thread_0.statExecutedInstType::SimdCmp            0      0.00%     63.12% # Class of executed instruction. (Count)
system.cpu.exec_context.thread_0.statExecutedInstType::SimdCvt            0      0.00%     63.12% # Class of executed instruction. (Count)
system.cpu.exec_context.thread_0.statExecutedInstType::SimdMisc            0      0.00%     63.12% # Class of executed instruction. (Count)
system.cpu.exec_context.thread_0.statExecutedInstType::SimdMult            0      0.00%     63.12% # Class of executed instruction. (Count)
system.cpu.exec_context.thread_0.statExecutedInstType::SimdMultAcc            0      0.00%     63.12% # Class of executed instruction. (Count)
system.cpu.exec_context.thread_0.statExecutedInstType::SimdShift            0      0.00%     63.12% # Class of executed instruction. (Count)
system.cpu.exec_context.thread_0.statExecutedInstType::SimdShiftAcc            0      0.00%     63.12% # Class of executed instruction. (Count)
system.cpu.exec_context.thread_0.statExecutedInstType::SimdDiv            0      0.00%     63.12% # Class of executed instruction. (Count)
system.cpu.exec_context.thread_0.statExecutedInstType::SimdSqrt            0      0.00%     63.12% # Class of executed instruction. (Count)
system.cpu.exec_context.thread_0.statExecutedInstType::SimdFloatAdd            0      0.00%     63.12% # Class of executed instruction. (Count)
system.cpu.exec_context.thread_0.statExecutedInstType::SimdFloatAlu            0      0.00%     63.12% # Class of executed instruction. (Count)
system.cpu.exec_context.thread_0.statExecutedInstType::SimdFloatCmp            0      0.00%     63.12% # Class of executed instruction. (Count)
system.cpu.exec_context.thread_0.statExecutedInstType::SimdFloatCvt            0      0.00%     63.12% # Class of executed instruction. (Count)
system.cpu.exec_context.thread_0.statExecutedInstType::SimdFloatDiv            0      0.00%     63.12% # Class of executed instruction. (Count)
system.cpu.exec_context.thread_0.statExecutedInstType::SimdFloatMisc            0      0.00%     63.12% # Class of executed instruction. (Count)
system.cpu.exec_context.thread_0.statExecutedInstType::SimdFloatMult            0      0.00%     63.12% # Class of executed instruction. (Count)
system.cpu.exec_context.thread_0.statExecutedInstType::SimdFloatMultAcc            0      0.00%     63.12% # Class of executed instruction. (Count)
system.cpu.exec_context.thread_0.statExecutedInstType::SimdFloatSqrt            0      0.00%     63.12% # Class of executed instruction. (Count)
system.cpu.exec_context.thread_0.statExecutedInstType::SimdReduceAdd            0      0.00%     63.12% # Class of executed instruction. (Count)
system.cpu.exec_context.thread_0.statExecutedInstType::SimdReduceAlu            0      0.00%     63.12% # Class of executed instruction. (Count)
system.cpu.exec_context.thread_0.statExecutedInstType::SimdReduceCmp            0      0.00%     63.12% # Class of executed instruction. (Count)
system.cpu.exec_context.thread_0.statExecutedInstType::SimdFloatReduceAdd            0      0.00%     63.12% # Class of executed instruction. (Count)
system.cpu.exec_context.thread_0.statExecutedInstType::SimdFloatReduceCmp            0      0.00%     63.12% # Class of executed instruction. (Count)
system.cpu.exec_context.thread_0.statExecutedInstType::SimdAes            0      0.00%     63.12% # Class of executed instruction. (Count)
system.cpu.exec_context.thread_0.statExecutedInstType::SimdAesMix            0      0.00%     63.12% # Class of executed instruction. (Count)
system.cpu.exec_context.thread_0.statExecutedInstType::SimdSha1Hash            0      0.00%     63.12% # Class of executed instruction. (Count)
system.cpu.exec_context.thread_0.statExecutedInstType::SimdSha1Hash2            0      0.00%     63.12% # Class of executed instruction. (Count)
system.cpu.exec_context.thread_0.statExecutedInstType::SimdSha256Hash            0      0.00%     63.12% # Class of executed instruction. (Count)
system.cpu.exec_context.thread_0.statExecutedInstType::SimdSha256Hash2            0      0.00%     63.12% # Class of executed instruction. (Count)
system.cpu.exec_context.thread_0.statExecutedInstType::SimdShaSigma2            0      0.00%     63.12% # Class of executed instruction. (Count)
system.cpu.exec_context.thread_0.statExecutedInstType::SimdShaSigma3            0      0.00%     63.12% # Class of executed instruction. (Count)
system.cpu.exec_context.thread_0.statExecutedInstType::SimdPredAlu            0      0.00%     63.12% # Class of executed instruction. (Count)
system.cpu.exec_context.thread_0.statExecutedInstType::MemRead    106648563     22.91%     86.03% # Class of executed instruction. (Count)
system.cpu.exec_context.thread_0.statExecutedInstType::MemWrite     65040892     13.97%    100.00% # Class of executed instruction. (Count)
system.cpu.exec_context.thread_0.statExecutedInstType::FloatMemRead            0      0.00%    100.00% # Class of executed instruction. (Count)
system.cpu.exec_context.thread_0.statExecutedInstType::FloatMemWrite           18      0.00%    100.00% # Class of executed instruction. (Count)
system.cpu.exec_context.thread_0.statExecutedInstType::IprAccess            0      0.00%    100.00% # Class of executed instruction. (Count)
system.cpu.exec_context.thread_0.statExecutedInstType::InstPrefetch            0      0.00%    100.00% # Class of executed instruction. (Count)
system.cpu.exec_context.thread_0.statExecutedInstType::total    465511272                       # Class of executed instruction. (Count)
system.cpu.icache.demandHits::cpu.inst      465510363                       # number of demand (read+write) hits (Count)
system.cpu.icache.demandHits::total         465510363                       # number of demand (read+write) hits (Count)
system.cpu.icache.overallHits::cpu.inst     465510363                       # number of overall hits (Count)
system.cpu.icache.overallHits::total        465510363                       # number of overall hits (Count)
system.cpu.icache.demandMisses::cpu.inst          909                       # number of demand (read+write) misses (Count)
system.cpu.icache.demandMisses::total             909                       # number of demand (read+write) misses (Count)
system.cpu.icache.overallMisses::cpu.inst          909                       # number of overall misses (Count)
system.cpu.icache.overallMisses::total            909                       # number of overall misses (Count)
system.cpu.icache.demandMissLatency::cpu.inst     80130000                       # number of demand (read+write) miss ticks (Tick)
system.cpu.icache.demandMissLatency::total     80130000                       # number of demand (read+write) miss ticks (Tick)
system.cpu.icache.overallMissLatency::cpu.inst     80130000                       # number of overall miss ticks (Tick)
system.cpu.icache.overallMissLatency::total     80130000                       # number of overall miss ticks (Tick)
system.cpu.icache.demandAccesses::cpu.inst    465511272                       # number of demand (read+write) accesses (Count)
system.cpu.icache.demandAccesses::total     465511272                       # number of demand (read+write) accesses (Count)
system.cpu.icache.overallAccesses::cpu.inst    465511272                       # number of overall (read+write) accesses (Count)
system.cpu.icache.overallAccesses::total    465511272                       # number of overall (read+write) accesses (Count)
system.cpu.icache.demandMissRate::cpu.inst     0.000002                       # miss rate for demand accesses (Ratio)
system.cpu.icache.demandMissRate::total      0.000002                       # miss rate for demand accesses (Ratio)
system.cpu.icache.overallMissRate::cpu.inst     0.000002                       # miss rate for overall accesses (Ratio)
system.cpu.icache.overallMissRate::total     0.000002                       # miss rate for overall accesses (Ratio)
system.cpu.icache.demandAvgMissLatency::cpu.inst 88151.815182                       # average overall miss latency ((Cycle/Count))
system.cpu.icache.demandAvgMissLatency::total 88151.815182                       # average overall miss latency ((Cycle/Count))
system.cpu.icache.overallAvgMissLatency::cpu.inst 88151.815182                       # average overall miss latency ((Cycle/Count))
system.cpu.icache.overallAvgMissLatency::total 88151.815182                       # average overall miss latency ((Cycle/Count))
system.cpu.icache.blockedCycles::no_mshrs            0                       # number of cycles access was blocked (Cycle)
system.cpu.icache.blockedCycles::no_targets            0                       # number of cycles access was blocked (Cycle)
system.cpu.icache.blockedCauses::no_mshrs            0                       # number of times access was blocked (Count)
system.cpu.icache.blockedCauses::no_targets            0                       # number of times access was blocked (Count)
system.cpu.icache.avgBlocked::no_mshrs            nan                       # average number of cycles each access was blocked ((Cycle/Count))
system.cpu.icache.avgBlocked::no_targets          nan                       # average number of cycles each access was blocked ((Cycle/Count))
system.cpu.icache.demandMshrMisses::cpu.inst          909                       # number of demand (read+write) MSHR misses (Count)
system.cpu.icache.demandMshrMisses::total          909                       # number of demand (read+write) MSHR misses (Count)
system.cpu.icache.overallMshrMisses::cpu.inst          909                       # number of overall MSHR misses (Count)
system.cpu.icache.overallMshrMisses::total          909                       # number of overall MSHR misses (Count)
system.cpu.icache.demandMshrMissLatency::cpu.inst     78312000                       # number of demand (read+write) MSHR miss ticks (Tick)
system.cpu.icache.demandMshrMissLatency::total     78312000                       # number of demand (read+write) MSHR miss ticks (Tick)
system.cpu.icache.overallMshrMissLatency::cpu.inst     78312000                       # number of overall MSHR miss ticks (Tick)
system.cpu.icache.overallMshrMissLatency::total     78312000                       # number of overall MSHR miss ticks (Tick)
system.cpu.icache.demandMshrMissRate::cpu.inst     0.000002                       # mshr miss ratio for demand accesses (Ratio)
system.cpu.icache.demandMshrMissRate::total     0.000002                       # mshr miss ratio for demand accesses (Ratio)
system.cpu.icache.overallMshrMissRate::cpu.inst     0.000002                       # mshr miss ratio for overall accesses (Ratio)
system.cpu.icache.overallMshrMissRate::total     0.000002                       # mshr miss ratio for overall accesses (Ratio)
system.cpu.icache.demandAvgMshrMissLatency::cpu.inst 86151.815182                       # average overall mshr miss latency ((Cycle/Count))
system.cpu.icache.demandAvgMshrMissLatency::total 86151.815182                       # average overall mshr miss latency ((Cycle/Count))
system.cpu.icache.overallAvgMshrMissLatency::cpu.inst 86151.815182                       # average overall mshr miss latency ((Cycle/Count))
system.cpu.icache.overallAvgMshrMissLatency::total 86151.815182                       # average overall mshr miss latency ((Cycle/Count))
system.cpu.icache.replacements                    671                       # number of replacements (Count)
system.cpu.icache.ReadReq.hits::cpu.inst    465510363                       # number of ReadReq hits (Count)
system.cpu.icache.ReadReq.hits::total       465510363                       # number of ReadReq hits (Count)
system.cpu.icache.ReadReq.misses::cpu.inst          909                       # number of ReadReq misses (Count)
system.cpu.icache.ReadReq.misses::total           909                       # number of ReadReq misses (Count)
system.cpu.icache.ReadReq.missLatency::cpu.inst     80130000                       # number of ReadReq miss ticks (Tick)
system.cpu.icache.ReadReq.missLatency::total     80130000                       # number of ReadReq miss ticks (Tick)
system.cpu.icache.ReadReq.accesses::cpu.inst    465511272                       # number of ReadReq accesses(hits+misses) (Count)
system.cpu.icache.ReadReq.accesses::total    465511272                       # number of ReadReq accesses(hits+misses) (Count)
system.cpu.icache.ReadReq.missRate::cpu.inst     0.000002                       # miss rate for ReadReq accesses (Ratio)
system.cpu.icache.ReadReq.missRate::total     0.000002                       # miss rate for ReadReq accesses (Ratio)
system.cpu.icache.ReadReq.avgMissLatency::cpu.inst 88151.815182                       # average ReadReq miss latency ((Tick/Count))
system.cpu.icache.ReadReq.avgMissLatency::total 88151.815182                       # average ReadReq miss latency ((Tick/Count))
system.cpu.icache.ReadReq.mshrMisses::cpu.inst          909                       # number of ReadReq MSHR misses (Count)
system.cpu.icache.ReadReq.mshrMisses::total          909                       # number of ReadReq MSHR misses (Count)
system.cpu.icache.ReadReq.mshrMissLatency::cpu.inst     78312000                       # number of ReadReq MSHR miss ticks (Tick)
system.cpu.icache.ReadReq.mshrMissLatency::total     78312000                       # number of ReadReq MSHR miss ticks (Tick)
system.cpu.icache.ReadReq.mshrMissRate::cpu.inst     0.000002                       # mshr miss rate for ReadReq accesses (Ratio)
system.cpu.icache.ReadReq.mshrMissRate::total     0.000002                       # mshr miss rate for ReadReq accesses (Ratio)
system.cpu.icache.ReadReq.avgMshrMissLatency::cpu.inst 86151.815182                       # average ReadReq mshr miss latency ((Tick/Count))
system.cpu.icache.ReadReq.avgMshrMissLatency::total 86151.815182                       # average ReadReq mshr miss latency ((Tick/Count))
system.cpu.icache.power_state.pwrStateResidencyTicks::UNDEFINED 1515671023000                       # Cumulative time (in ticks) in various power states (Tick)
system.cpu.icache.tags.tagsInUse           229.398359                       # Average ticks per tags in use ((Tick/Count))
system.cpu.icache.tags.totalRefs            465511272                       # Total number of references to valid blocks. (Count)
system.cpu.icache.tags.sampledRefs                909                       # Sample count of references to valid blocks. (Count)
system.cpu.icache.tags.avgRefs           512113.610561                       # Average number of references to valid blocks. ((Count/Count))
system.cpu.icache.tags.warmupTick              107000                       # The tick when the warmup percentage was hit. (Tick)
system.cpu.icache.tags.occupancies::cpu.inst   229.398359                       # Average occupied blocks per tick, per requestor ((Count/Tick))
system.cpu.icache.tags.avgOccs::cpu.inst     0.896087                       # Average percentage of cache occupancy ((Ratio/Tick))
system.cpu.icache.tags.avgOccs::total        0.896087                       # Average percentage of cache occupancy ((Ratio/Tick))
system.cpu.icache.tags.occupanciesTaskId::1024          238                       # Occupied blocks per task id (Count)
system.cpu.icache.tags.ageTaskId_1024::0           46                       # Occupied blocks per task id, per block age (Count)
system.cpu.icache.tags.ageTaskId_1024::1           32                       # Occupied blocks per task id, per block age (Count)
system.cpu.icache.tags.ageTaskId_1024::4          160                       # Occupied blocks per task id, per block age (Count)
system.cpu.icache.tags.ratioOccsTaskId::1024     0.929688                       # Ratio of occupied blocks and all blocks, per task id (Ratio)
system.cpu.icache.tags.tagAccesses          465512181                       # Number of tag accesses (Count)
system.cpu.icache.tags.dataAccesses         465512181                       # Number of data accesses (Count)
system.cpu.icache.tags.power_state.pwrStateResidencyTicks::UNDEFINED 1515671023000                       # Cumulative time (in ticks) in various power states (Tick)
system.cpu.power_state.pwrStateResidencyTicks::ON 1515671023000                       # Cumulative time (in ticks) in various power states (Tick)
system.cpu.thread_0.numInsts                        0                       # Number of Instructions committed (Count)
system.cpu.thread_0.numOps                          0                       # Number of Ops committed (Count)
system.cpu.thread_0.numMemRefs                      0                       # Number of Memory References (Count)
system.cpu.workload.numSyscalls                    51                       # Number of system calls (Count)
system.l2bus.transDist::ReadResp              2119018                       # Transaction distribution (Count)
system.l2bus.transDist::WritebackDirty        3896668                       # Transaction distribution (Count)
system.l2bus.transDist::CleanEvict            1124278                       # Transaction distribution (Count)
system.l2bus.transDist::ReadExReq              672140                       # Transaction distribution (Count)
system.l2bus.transDist::ReadExResp             672140                       # Transaction distribution (Count)
system.l2bus.transDist::ReadSharedReq         2119018                       # Transaction distribution (Count)
system.l2bus.pktCount_system.cpu.icache.mem_side_port::system.l2cache.cpu_side_port         2489                       # Packet count per connected requestor and responder (Count)
system.l2bus.pktCount_system.cpu.dcache.mem_side_port::system.l2cache.cpu_side_port      8370235                       # Packet count per connected requestor and responder (Count)
system.l2bus.pktCount::total                  8372724                       # Packet count per connected requestor and responder (Count)
system.l2bus.pktSize_system.cpu.icache.mem_side_port::system.l2cache.cpu_side_port        58176                       # Cumulative packet size per connected requestor and responder (Byte)
system.l2bus.pktSize_system.cpu.dcache.mem_side_port::system.l2cache.cpu_side_port    316060928                       # Cumulative packet size per connected requestor and responder (Byte)
system.l2bus.pktSize::total                 316119104                       # Cumulative packet size per connected requestor and responder (Byte)
system.l2bus.snoops                           2230538                       # Total snoops (Count)
system.l2bus.snoopTraffic                   111901760                       # Total snoop traffic (Byte)
system.l2bus.snoopFanout::samples             5021696                       # Request fanout histogram (Count)
system.l2bus.snoopFanout::mean               0.000080                       # Request fanout histogram (Count)
system.l2bus.snoopFanout::stdev              0.008936                       # Request fanout histogram (Count)
system.l2bus.snoopFanout::underflows                0      0.00%      0.00% # Request fanout histogram (Count)
system.l2bus.snoopFanout::0                   5021295     99.99%     99.99% # Request fanout histogram (Count)
system.l2bus.snoopFanout::1                       401      0.01%    100.00% # Request fanout histogram (Count)
system.l2bus.snoopFanout::2                         0      0.00%    100.00% # Request fanout histogram (Count)
system.l2bus.snoopFanout::overflows                 0      0.00%    100.00% # Request fanout histogram (Count)
system.l2bus.snoopFanout::min_value                 0                       # Request fanout histogram (Count)
system.l2bus.snoopFanout::max_value                 1                       # Request fanout histogram (Count)
system.l2bus.snoopFanout::total               5021696                       # Request fanout histogram (Count)
system.l2bus.power_state.pwrStateResidencyTicks::UNDEFINED 1515671023000                       # Cumulative time (in ticks) in various power states (Tick)
system.l2bus.reqLayer0.occupancy           9877972000                       # Layer occupancy (ticks) (Tick)
system.l2bus.reqLayer0.utilization                0.0                       # Layer utilization (Ratio)
system.l2bus.respLayer0.occupancy             2727000                       # Layer occupancy (ticks) (Tick)
system.l2bus.respLayer0.utilization               0.0                       # Layer utilization (Ratio)
system.l2bus.respLayer1.occupancy          8370747000                       # Layer occupancy (ticks) (Tick)
system.l2bus.respLayer1.utilization               0.0                       # Layer utilization (Ratio)
system.l2bus.snoop_filter.totRequests         5581566                       # Total number of requests made to the snoop filter. (Count)
system.l2bus.snoop_filter.hitSingleRequests      2790408                       # Number of requests hitting in the snoop filter with a single holder of the requested data. (Count)
system.l2bus.snoop_filter.hitMultiRequests            2                       # Number of requests hitting in the snoop filter with multiple (>1) holders of the requested data. (Count)
system.l2bus.snoop_filter.totSnoops               399                       # Total number of snoops made to the snoop filter. (Count)
system.l2bus.snoop_filter.hitSingleSnoops          399                       # Number of snoops hitting in the snoop filter with a single holder of the requested data. (Count)
system.l2bus.snoop_filter.hitMultiSnoops            0                       # Number of snoops hitting in the snoop filter with multiple (>1) holders of the requested data. (Count)
system.l2cache.demandHits::cpu.inst               206                       # number of demand (read+write) hits (Count)
system.l2cache.demandHits::cpu.data            556318                       # number of demand (read+write) hits (Count)
system.l2cache.demandHits::total               556524                       # number of demand (read+write) hits (Count)
system.l2cache.overallHits::cpu.inst              206                       # number of overall hits (Count)
system.l2cache.overallHits::cpu.data           556318                       # number of overall hits (Count)
system.l2cache.overallHits::total              556524                       # number of overall hits (Count)
system.l2cache.demandMisses::cpu.inst             703                       # number of demand (read+write) misses (Count)
system.l2cache.demandMisses::cpu.data         2233931                       # number of demand (read+write) misses (Count)
system.l2cache.demandMisses::total            2234634                       # number of demand (read+write) misses (Count)
system.l2cache.overallMisses::cpu.inst            703                       # number of overall misses (Count)
system.l2cache.overallMisses::cpu.data        2233931                       # number of overall misses (Count)
system.l2cache.overallMisses::total           2234634                       # number of overall misses (Count)
system.l2cache.demandMissLatency::cpu.inst     71246000                       # number of demand (read+write) miss ticks (Tick)
system.l2cache.demandMissLatency::cpu.data 218801512000                       # number of demand (read+write) miss ticks (Tick)
system.l2cache.demandMissLatency::total  218872758000                       # number of demand (read+write) miss ticks (Tick)
system.l2cache.overallMissLatency::cpu.inst     71246000                       # number of overall miss ticks (Tick)
system.l2cache.overallMissLatency::cpu.data 218801512000                       # number of overall miss ticks (Tick)
system.l2cache.overallMissLatency::total 218872758000                       # number of overall miss ticks (Tick)
system.l2cache.demandAccesses::cpu.inst           909                       # number of demand (read+write) accesses (Count)
system.l2cache.demandAccesses::cpu.data       2790249                       # number of demand (read+write) accesses (Count)
system.l2cache.demandAccesses::total          2791158                       # number of demand (read+write) accesses (Count)
system.l2cache.overallAccesses::cpu.inst          909                       # number of overall (read+write) accesses (Count)
system.l2cache.overallAccesses::cpu.data      2790249                       # number of overall (read+write) accesses (Count)
system.l2cache.overallAccesses::total         2791158                       # number of overall (read+write) accesses (Count)
system.l2cache.demandMissRate::cpu.inst      0.773377                       # miss rate for demand accesses (Ratio)
system.l2cache.demandMissRate::cpu.data      0.800621                       # miss rate for demand accesses (Ratio)
system.l2cache.demandMissRate::total         0.800612                       # miss rate for demand accesses (Ratio)
system.l2cache.overallMissRate::cpu.inst     0.773377                       # miss rate for overall accesses (Ratio)
system.l2cache.overallMissRate::cpu.data     0.800621                       # miss rate for overall accesses (Ratio)
system.l2cache.overallMissRate::total        0.800612                       # miss rate for overall accesses (Ratio)
system.l2cache.demandAvgMissLatency::cpu.inst 101345.661451                       # average overall miss latency ((Cycle/Count))
system.l2cache.demandAvgMissLatency::cpu.data 97944.615120                       # average overall miss latency ((Cycle/Count))
system.l2cache.demandAvgMissLatency::total 97945.685065                       # average overall miss latency ((Cycle/Count))
system.l2cache.overallAvgMissLatency::cpu.inst 101345.661451                       # average overall miss latency ((Cycle/Count))
system.l2cache.overallAvgMissLatency::cpu.data 97944.615120                       # average overall miss latency ((Cycle/Count))
system.l2cache.overallAvgMissLatency::total 97945.685065                       # average overall miss latency ((Cycle/Count))
system.l2cache.blockedCycles::no_mshrs              0                       # number of cycles access was blocked (Cycle)
system.l2cache.blockedCycles::no_targets            0                       # number of cycles access was blocked (Cycle)
system.l2cache.blockedCauses::no_mshrs              0                       # number of times access was blocked (Count)
system.l2cache.blockedCauses::no_targets            0                       # number of times access was blocked (Count)
system.l2cache.avgBlocked::no_mshrs               nan                       # average number of cycles each access was blocked ((Cycle/Count))
system.l2cache.avgBlocked::no_targets             nan                       # average number of cycles each access was blocked ((Cycle/Count))
system.l2cache.writebacks::writebacks         1748465                       # number of writebacks (Count)
system.l2cache.writebacks::total              1748465                       # number of writebacks (Count)
system.l2cache.demandMshrMisses::cpu.inst          703                       # number of demand (read+write) MSHR misses (Count)
system.l2cache.demandMshrMisses::cpu.data      2233931                       # number of demand (read+write) MSHR misses (Count)
system.l2cache.demandMshrMisses::total        2234634                       # number of demand (read+write) MSHR misses (Count)
system.l2cache.overallMshrMisses::cpu.inst          703                       # number of overall MSHR misses (Count)
system.l2cache.overallMshrMisses::cpu.data      2233931                       # number of overall MSHR misses (Count)
system.l2cache.overallMshrMisses::total       2234634                       # number of overall MSHR misses (Count)
system.l2cache.demandMshrMissLatency::cpu.inst     57186000                       # number of demand (read+write) MSHR miss ticks (Tick)
system.l2cache.demandMshrMissLatency::cpu.data 174122892000                       # number of demand (read+write) MSHR miss ticks (Tick)
system.l2cache.demandMshrMissLatency::total 174180078000                       # number of demand (read+write) MSHR miss ticks (Tick)
system.l2cache.overallMshrMissLatency::cpu.inst     57186000                       # number of overall MSHR miss ticks (Tick)
system.l2cache.overallMshrMissLatency::cpu.data 174122892000                       # number of overall MSHR miss ticks (Tick)
system.l2cache.overallMshrMissLatency::total 174180078000                       # number of overall MSHR miss ticks (Tick)
system.l2cache.demandMshrMissRate::cpu.inst     0.773377                       # mshr miss ratio for demand accesses (Ratio)
system.l2cache.demandMshrMissRate::cpu.data     0.800621                       # mshr miss ratio for demand accesses (Ratio)
system.l2cache.demandMshrMissRate::total     0.800612                       # mshr miss ratio for demand accesses (Ratio)
system.l2cache.overallMshrMissRate::cpu.inst     0.773377                       # mshr miss ratio for overall accesses (Ratio)
system.l2cache.overallMshrMissRate::cpu.data     0.800621                       # mshr miss ratio for overall accesses (Ratio)
system.l2cache.overallMshrMissRate::total     0.800612                       # mshr miss ratio for overall accesses (Ratio)
system.l2cache.demandAvgMshrMissLatency::cpu.inst 81345.661451                       # average overall mshr miss latency ((Cycle/Count))
system.l2cache.demandAvgMshrMissLatency::cpu.data 77944.615120                       # average overall mshr miss latency ((Cycle/Count))
system.l2cache.demandAvgMshrMissLatency::total 77945.685065                       # average overall mshr miss latency ((Cycle/Count))
system.l2cache.overallAvgMshrMissLatency::cpu.inst 81345.661451                       # average overall mshr miss latency ((Cycle/Count))
system.l2cache.overallAvgMshrMissLatency::cpu.data 77944.615120                       # average overall mshr miss latency ((Cycle/Count))
system.l2cache.overallAvgMshrMissLatency::total 77945.685065                       # average overall mshr miss latency ((Cycle/Count))
system.l2cache.replacements                   2230538                       # number of replacements (Count)
system.l2cache.CleanEvict.mshrMisses::writebacks          239                       # number of CleanEvict MSHR misses (Count)
system.l2cache.CleanEvict.mshrMisses::total          239                       # number of CleanEvict MSHR misses (Count)
system.l2cache.CleanEvict.mshrMissRate::writebacks          inf                       # mshr miss rate for CleanEvict accesses (Ratio)
system.l2cache.CleanEvict.mshrMissRate::total          inf                       # mshr miss rate for CleanEvict accesses (Ratio)
system.l2cache.ReadExReq.hits::cpu.data        152780                       # number of ReadExReq hits (Count)
system.l2cache.ReadExReq.hits::total           152780                       # number of ReadExReq hits (Count)
system.l2cache.ReadExReq.misses::cpu.data       519360                       # number of ReadExReq misses (Count)
system.l2cache.ReadExReq.misses::total         519360                       # number of ReadExReq misses (Count)
system.l2cache.ReadExReq.missLatency::cpu.data  50766209000                       # number of ReadExReq miss ticks (Tick)
system.l2cache.ReadExReq.missLatency::total  50766209000                       # number of ReadExReq miss ticks (Tick)
system.l2cache.ReadExReq.accesses::cpu.data       672140                       # number of ReadExReq accesses(hits+misses) (Count)
system.l2cache.ReadExReq.accesses::total       672140                       # number of ReadExReq accesses(hits+misses) (Count)
system.l2cache.ReadExReq.missRate::cpu.data     0.772696                       # miss rate for ReadExReq accesses (Ratio)
system.l2cache.ReadExReq.missRate::total     0.772696                       # miss rate for ReadExReq accesses (Ratio)
system.l2cache.ReadExReq.avgMissLatency::cpu.data 97747.629775                       # average ReadExReq miss latency ((Tick/Count))
system.l2cache.ReadExReq.avgMissLatency::total 97747.629775                       # average ReadExReq miss latency ((Tick/Count))
system.l2cache.ReadExReq.mshrMisses::cpu.data       519360                       # number of ReadExReq MSHR misses (Count)
system.l2cache.ReadExReq.mshrMisses::total       519360                       # number of ReadExReq MSHR misses (Count)
system.l2cache.ReadExReq.mshrMissLatency::cpu.data  40379009000                       # number of ReadExReq MSHR miss ticks (Tick)
system.l2cache.ReadExReq.mshrMissLatency::total  40379009000                       # number of ReadExReq MSHR miss ticks (Tick)
system.l2cache.ReadExReq.mshrMissRate::cpu.data     0.772696                       # mshr miss rate for ReadExReq accesses (Ratio)
system.l2cache.ReadExReq.mshrMissRate::total     0.772696                       # mshr miss rate for ReadExReq accesses (Ratio)
system.l2cache.ReadExReq.avgMshrMissLatency::cpu.data 77747.629775                       # average ReadExReq mshr miss latency ((Tick/Count))
system.l2cache.ReadExReq.avgMshrMissLatency::total 77747.629775                       # average ReadExReq mshr miss latency ((Tick/Count))
system.l2cache.ReadSharedReq.hits::cpu.inst          206                       # number of ReadSharedReq hits (Count)
system.l2cache.ReadSharedReq.hits::cpu.data       403538                       # number of ReadSharedReq hits (Count)
system.l2cache.ReadSharedReq.hits::total       403744                       # number of ReadSharedReq hits (Count)
system.l2cache.ReadSharedReq.misses::cpu.inst          703                       # number of ReadSharedReq misses (Count)
system.l2cache.ReadSharedReq.misses::cpu.data      1714571                       # number of ReadSharedReq misses (Count)
system.l2cache.ReadSharedReq.misses::total      1715274                       # number of ReadSharedReq misses (Count)
system.l2cache.ReadSharedReq.missLatency::cpu.inst     71246000                       # number of ReadSharedReq miss ticks (Tick)
system.l2cache.ReadSharedReq.missLatency::cpu.data 168035303000                       # number of ReadSharedReq miss ticks (Tick)
system.l2cache.ReadSharedReq.missLatency::total 168106549000                       # number of ReadSharedReq miss ticks (Tick)
system.l2cache.ReadSharedReq.accesses::cpu.inst          909                       # number of ReadSharedReq accesses(hits+misses) (Count)
system.l2cache.ReadSharedReq.accesses::cpu.data      2118109                       # number of ReadSharedReq accesses(hits+misses) (Count)
system.l2cache.ReadSharedReq.accesses::total      2119018                       # number of ReadSharedReq accesses(hits+misses) (Count)
system.l2cache.ReadSharedReq.missRate::cpu.inst     0.773377                       # miss rate for ReadSharedReq accesses (Ratio)
system.l2cache.ReadSharedReq.missRate::cpu.data     0.809482                       # miss rate for ReadSharedReq accesses (Ratio)
system.l2cache.ReadSharedReq.missRate::total     0.809466                       # miss rate for ReadSharedReq accesses (Ratio)
system.l2cache.ReadSharedReq.avgMissLatency::cpu.inst 101345.661451                       # average ReadSharedReq miss latency ((Tick/Count))
system.l2cache.ReadSharedReq.avgMissLatency::cpu.data 98004.283870                       # average ReadSharedReq miss latency ((Tick/Count))
system.l2cache.ReadSharedReq.avgMissLatency::total 98005.653324                       # average ReadSharedReq miss latency ((Tick/Count))
system.l2cache.ReadSharedReq.mshrMisses::cpu.inst          703                       # number of ReadSharedReq MSHR misses (Count)
system.l2cache.ReadSharedReq.mshrMisses::cpu.data      1714571                       # number of ReadSharedReq MSHR misses (Count)
system.l2cache.ReadSharedReq.mshrMisses::total      1715274                       # number of ReadSharedReq MSHR misses (Count)
system.l2cache.ReadSharedReq.mshrMissLatency::cpu.inst     57186000                       # number of ReadSharedReq MSHR miss ticks (Tick)
system.l2cache.ReadSharedReq.mshrMissLatency::cpu.data 133743883000                       # number of ReadSharedReq MSHR miss ticks (Tick)
system.l2cache.ReadSharedReq.mshrMissLatency::total 133801069000                       # number of ReadSharedReq MSHR miss ticks (Tick)
system.l2cache.ReadSharedReq.mshrMissRate::cpu.inst     0.773377                       # mshr miss rate for ReadSharedReq accesses (Ratio)
system.l2cache.ReadSharedReq.mshrMissRate::cpu.data     0.809482                       # mshr miss rate for ReadSharedReq accesses (Ratio)
system.l2cache.ReadSharedReq.mshrMissRate::total     0.809466                       # mshr miss rate for ReadSharedReq accesses (Ratio)
system.l2cache.ReadSharedReq.avgMshrMissLatency::cpu.inst 81345.661451                       # average ReadSharedReq mshr miss latency ((Tick/Count))
system.l2cache.ReadSharedReq.avgMshrMissLatency::cpu.data 78004.283870                       # average ReadSharedReq mshr miss latency ((Tick/Count))
system.l2cache.ReadSharedReq.avgMshrMissLatency::total 78005.653324                       # average ReadSharedReq mshr miss latency ((Tick/Count))
system.l2cache.WritebackDirty.hits::writebacks      2148203                       # number of WritebackDirty hits (Count)
system.l2cache.WritebackDirty.hits::total      2148203                       # number of WritebackDirty hits (Count)
system.l2cache.WritebackDirty.accesses::writebacks      2148203                       # number of WritebackDirty accesses(hits+misses) (Count)
system.l2cache.WritebackDirty.accesses::total      2148203                       # number of WritebackDirty accesses(hits+misses) (Count)
system.l2cache.power_state.pwrStateResidencyTicks::UNDEFINED 1515671023000                       # Cumulative time (in ticks) in various power states (Tick)
system.l2cache.tags.tagsInUse             4090.159205                       # Average ticks per tags in use ((Tick/Count))
system.l2cache.tags.totalRefs                 5581325                       # Total number of references to valid blocks. (Count)
system.l2cache.tags.sampledRefs               2234634                       # Sample count of references to valid blocks. (Count)
system.l2cache.tags.avgRefs                  2.497646                       # Average number of references to valid blocks. ((Count/Count))
system.l2cache.tags.warmupTick                  86000                       # The tick when the warmup percentage was hit. (Tick)
system.l2cache.tags.occupancies::cpu.inst     2.140718                       # Average occupied blocks per tick, per requestor ((Count/Tick))
system.l2cache.tags.occupancies::cpu.data  4088.018487                       # Average occupied blocks per tick, per requestor ((Count/Tick))
system.l2cache.tags.avgOccs::cpu.inst        0.000523                       # Average percentage of cache occupancy ((Ratio/Tick))
system.l2cache.tags.avgOccs::cpu.data        0.998051                       # Average percentage of cache occupancy ((Ratio/Tick))
system.l2cache.tags.avgOccs::total           0.998574                       # Average percentage of cache occupancy ((Ratio/Tick))
system.l2cache.tags.occupanciesTaskId::1024         4096                       # Occupied blocks per task id (Count)
system.l2cache.tags.ageTaskId_1024::0              80                       # Occupied blocks per task id, per block age (Count)
system.l2cache.tags.ageTaskId_1024::1             252                       # Occupied blocks per task id, per block age (Count)
system.l2cache.tags.ageTaskId_1024::2            1950                       # Occupied blocks per task id, per block age (Count)
system.l2cache.tags.ageTaskId_1024::3            1810                       # Occupied blocks per task id, per block age (Count)
system.l2cache.tags.ageTaskId_1024::4               4                       # Occupied blocks per task id, per block age (Count)
system.l2cache.tags.ratioOccsTaskId::1024            1                       # Ratio of occupied blocks and all blocks, per task id (Ratio)
system.l2cache.tags.tagAccesses              46887146                       # Number of tag accesses (Count)
system.l2cache.tags.dataAccesses             46887146                       # Number of data accesses (Count)
system.l2cache.tags.power_state.pwrStateResidencyTicks::UNDEFINED 1515671023000                       # Cumulative time (in ticks) in various power states (Tick)
system.mem_ctrl.avgPriority_writebacks::samples   1748465.00                       # Average QoS priority value for accepted requests (Count)
system.mem_ctrl.avgPriority_cpu.inst::samples       703.00                       # Average QoS priority value for accepted requests (Count)
system.mem_ctrl.avgPriority_cpu.data::samples   2233855.00                       # Average QoS priority value for accepted requests (Count)
system.mem_ctrl.priorityMinLatency       0.000000018750                       # per QoS priority minimum request to response latency (Second)
system.mem_ctrl.priorityMaxLatency       0.010513606500                       # per QoS priority maximum request to response latency (Second)
system.mem_ctrl.numReadWriteTurnArounds         97338                       # Number of turnarounds from READ to WRITE (Count)
system.mem_ctrl.numWriteReadTurnArounds         97338                       # Number of turnarounds from WRITE to READ (Count)
system.mem_ctrl.numStayReadState              6601343                       # Number of times bus staying in READ state (Count)
system.mem_ctrl.numStayWriteState             1653381                       # Number of times bus staying in WRITE state (Count)
system.mem_ctrl.readReqs                      2234634                       # Number of read requests accepted (Count)
system.mem_ctrl.writeReqs                     1748465                       # Number of write requests accepted (Count)
system.mem_ctrl.readBursts                    2234634                       # Number of controller read bursts, including those serviced by the write queue (Count)
system.mem_ctrl.writeBursts                   1748465                       # Number of controller write bursts, including those merged in the write queue (Count)
system.mem_ctrl.servicedByWrQ                      76                       # Number of controller read bursts serviced by the write queue (Count)
system.mem_ctrl.mergedWrBursts                      0                       # Number of controller write bursts merged with an existing one (Count)
system.mem_ctrl.neitherReadNorWriteReqs             0                       # Number of requests that are neither read nor write (Count)
system.mem_ctrl.avgRdQLen                        1.00                       # Average read queue length when enqueuing ((Count/Tick))
system.mem_ctrl.avgWrQLen                       24.51                       # Average write queue length when enqueuing ((Count/Tick))
system.mem_ctrl.numRdRetry                          0                       # Number of times read queue was full causing retry (Count)
system.mem_ctrl.numWrRetry                          0                       # Number of times write queue was full causing retry (Count)
system.mem_ctrl.readPktSize::0                      0                       # Read request sizes (log2) (Count)
system.mem_ctrl.readPktSize::1                      0                       # Read request sizes (log2) (Count)
system.mem_ctrl.readPktSize::2                      0                       # Read request sizes (log2) (Count)
system.mem_ctrl.readPktSize::3                      0                       # Read request sizes (log2) (Count)
system.mem_ctrl.readPktSize::4                      0                       # Read request sizes (log2) (Count)
system.mem_ctrl.readPktSize::5                      0                       # Read request sizes (log2) (Count)
system.mem_ctrl.readPktSize::6                2234634                       # Read request sizes (log2) (Count)
system.mem_ctrl.writePktSize::0                     0                       # Write request sizes (log2) (Count)
system.mem_ctrl.writePktSize::1                     0                       # Write request sizes (log2) (Count)
system.mem_ctrl.writePktSize::2                     0                       # Write request sizes (log2) (Count)
system.mem_ctrl.writePktSize::3                     0                       # Write request sizes (log2) (Count)
system.mem_ctrl.writePktSize::4                     0                       # Write request sizes (log2) (Count)
system.mem_ctrl.writePktSize::5                     0                       # Write request sizes (log2) (Count)
system.mem_ctrl.writePktSize::6               1748465                       # Write request sizes (log2) (Count)
system.mem_ctrl.rdQLenPdf::0                  2234557                       # What read queue length does an incoming req see (Count)
system.mem_ctrl.rdQLenPdf::1                        1                       # What read queue length does an incoming req see (Count)
system.mem_ctrl.rdQLenPdf::2                        0                       # What read queue length does an incoming req see (Count)
system.mem_ctrl.rdQLenPdf::3                        0                       # What read queue length does an incoming req see (Count)
system.mem_ctrl.rdQLenPdf::4                        0                       # What read queue length does an incoming req see (Count)
system.mem_ctrl.rdQLenPdf::5                        0                       # What read queue length does an incoming req see (Count)
system.mem_ctrl.rdQLenPdf::6                        0                       # What read queue length does an incoming req see (Count)
system.mem_ctrl.rdQLenPdf::7                        0                       # What read queue length does an incoming req see (Count)
system.mem_ctrl.rdQLenPdf::8                        0                       # What read queue length does an incoming req see (Count)
system.mem_ctrl.rdQLenPdf::9                        0                       # What read queue length does an incoming req see (Count)
system.mem_ctrl.rdQLenPdf::10                       0                       # What read queue length does an incoming req see (Count)
system.mem_ctrl.rdQLenPdf::11                       0                       # What read queue length does an incoming req see (Count)
system.mem_ctrl.rdQLenPdf::12                       0                       # What read queue length does an incoming req see (Count)
system.mem_ctrl.rdQLenPdf::13                       0                       # What read queue length does an incoming req see (Count)
system.mem_ctrl.rdQLenPdf::14                       0                       # What read queue length does an incoming req see (Count)
system.mem_ctrl.rdQLenPdf::15                       0                       # What read queue length does an incoming req see (Count)
system.mem_ctrl.rdQLenPdf::16                       0                       # What read queue length does an incoming req see (Count)
system.mem_ctrl.rdQLenPdf::17                       0                       # What read queue length does an incoming req see (Count)
system.mem_ctrl.rdQLenPdf::18                       0                       # What read queue length does an incoming req see (Count)
system.mem_ctrl.rdQLenPdf::19                       0                       # What read queue length does an incoming req see (Count)
system.mem_ctrl.rdQLenPdf::20                       0                       # What read queue length does an incoming req see (Count)
system.mem_ctrl.rdQLenPdf::21                       0                       # What read queue length does an incoming req see (Count)
system.mem_ctrl.rdQLenPdf::22                       0                       # What read queue length does an incoming req see (Count)
system.mem_ctrl.rdQLenPdf::23                       0                       # What read queue length does an incoming req see (Count)
system.mem_ctrl.rdQLenPdf::24                       0                       # What read queue length does an incoming req see (Count)
system.mem_ctrl.rdQLenPdf::25                       0                       # What read queue length does an incoming req see (Count)
system.mem_ctrl.rdQLenPdf::26                       0                       # What read queue length does an incoming req see (Count)
system.mem_ctrl.rdQLenPdf::27                       0                       # What read queue length does an incoming req see (Count)
system.mem_ctrl.rdQLenPdf::28                       0                       # What read queue length does an incoming req see (Count)
system.mem_ctrl.rdQLenPdf::29                       0                       # What read queue length does an incoming req see (Count)
system.mem_ctrl.rdQLenPdf::30                       0                       # What read queue length does an incoming req see (Count)
system.mem_ctrl.rdQLenPdf::31                       0                       # What read queue length does an incoming req see (Count)
system.mem_ctrl.wrQLenPdf::0                        1                       # What write queue length does an incoming req see (Count)
system.mem_ctrl.wrQLenPdf::1                        1                       # What write queue length does an incoming req see (Count)
system.mem_ctrl.wrQLenPdf::2                        1                       # What write queue length does an incoming req see (Count)
system.mem_ctrl.wrQLenPdf::3                        1                       # What write queue length does an incoming req see (Count)
system.mem_ctrl.wrQLenPdf::4                        1                       # What write queue length does an incoming req see (Count)
system.mem_ctrl.wrQLenPdf::5                        1                       # What write queue length does an incoming req see (Count)
system.mem_ctrl.wrQLenPdf::6                        1                       # What write queue length does an incoming req see (Count)
system.mem_ctrl.wrQLenPdf::7                        1                       # What write queue length does an incoming req see (Count)
system.mem_ctrl.wrQLenPdf::8                        1                       # What write queue length does an incoming req see (Count)
system.mem_ctrl.wrQLenPdf::9                        1                       # What write queue length does an incoming req see (Count)
system.mem_ctrl.wrQLenPdf::10                       1                       # What write queue length does an incoming req see (Count)
system.mem_ctrl.wrQLenPdf::11                       1                       # What write queue length does an incoming req see (Count)
system.mem_ctrl.wrQLenPdf::12                       1                       # What write queue length does an incoming req see (Count)
system.mem_ctrl.wrQLenPdf::13                       1                       # What write queue length does an incoming req see (Count)
system.mem_ctrl.wrQLenPdf::14                       1                       # What write queue length does an incoming req see (Count)
system.mem_ctrl.wrQLenPdf::15                   95273                       # What write queue length does an incoming req see (Count)
system.mem_ctrl.wrQLenPdf::16                   95673                       # What write queue length does an incoming req see (Count)
system.mem_ctrl.wrQLenPdf::17                   97340                       # What write queue length does an incoming req see (Count)
system.mem_ctrl.wrQLenPdf::18                   97342                       # What write queue length does an incoming req see (Count)
system.mem_ctrl.wrQLenPdf::19                   97343                       # What write queue length does an incoming req see (Count)
system.mem_ctrl.wrQLenPdf::20                   97340                       # What write queue length does an incoming req see (Count)
system.mem_ctrl.wrQLenPdf::21                   97346                       # What write queue length does an incoming req see (Count)
system.mem_ctrl.wrQLenPdf::22                   97371                       # What write queue length does an incoming req see (Count)
system.mem_ctrl.wrQLenPdf::23                   97376                       # What write queue length does an incoming req see (Count)
system.mem_ctrl.wrQLenPdf::24                   97339                       # What write queue length does an incoming req see (Count)
system.mem_ctrl.wrQLenPdf::25                   97339                       # What write queue length does an incoming req see (Count)
system.mem_ctrl.wrQLenPdf::26                   97339                       # What write queue length does an incoming req see (Count)
system.mem_ctrl.wrQLenPdf::27                   97339                       # What write queue length does an incoming req see (Count)
system.mem_ctrl.wrQLenPdf::28                   97338                       # What write queue length does an incoming req see (Count)
system.mem_ctrl.wrQLenPdf::29                   97338                       # What write queue length does an incoming req see (Count)
system.mem_ctrl.wrQLenPdf::30                   97338                       # What write queue length does an incoming req see (Count)
system.mem_ctrl.wrQLenPdf::31                   97338                       # What write queue length does an incoming req see (Count)
system.mem_ctrl.wrQLenPdf::32                   97338                       # What write queue length does an incoming req see (Count)
system.mem_ctrl.wrQLenPdf::33                       0                       # What write queue length does an incoming req see (Count)
system.mem_ctrl.wrQLenPdf::34                       0                       # What write queue length does an incoming req see (Count)
system.mem_ctrl.wrQLenPdf::35                       0                       # What write queue length does an incoming req see (Count)
system.mem_ctrl.wrQLenPdf::36                       0                       # What write queue length does an incoming req see (Count)
system.mem_ctrl.wrQLenPdf::37                       0                       # What write queue length does an incoming req see (Count)
system.mem_ctrl.wrQLenPdf::38                       0                       # What write queue length does an incoming req see (Count)
system.mem_ctrl.wrQLenPdf::39                       0                       # What write queue length does an incoming req see (Count)
system.mem_ctrl.wrQLenPdf::40                       0                       # What write queue length does an incoming req see (Count)
system.mem_ctrl.wrQLenPdf::41                       0                       # What write queue length does an incoming req see (Count)
system.mem_ctrl.wrQLenPdf::42                       0                       # What write queue length does an incoming req see (Count)
system.mem_ctrl.wrQLenPdf::43                       0                       # What write queue length does an incoming req see (Count)
system.mem_ctrl.wrQLenPdf::44                       0                       # What write queue length does an incoming req see (Count)
system.mem_ctrl.wrQLenPdf::45                       0                       # What write queue length does an incoming req see (Count)
system.mem_ctrl.wrQLenPdf::46                       0                       # What write queue length does an incoming req see (Count)
system.mem_ctrl.wrQLenPdf::47                       0                       # What write queue length does an incoming req see (Count)
system.mem_ctrl.wrQLenPdf::48                       0                       # What write queue length does an incoming req see (Count)
system.mem_ctrl.wrQLenPdf::49                       0                       # What write queue length does an incoming req see (Count)
system.mem_ctrl.wrQLenPdf::50                       0                       # What write queue length does an incoming req see (Count)
system.mem_ctrl.wrQLenPdf::51                       0                       # What write queue length does an incoming req see (Count)
system.mem_ctrl.wrQLenPdf::52                       0                       # What write queue length does an incoming req see (Count)
system.mem_ctrl.wrQLenPdf::53                       0                       # What write queue length does an incoming req see (Count)
system.mem_ctrl.wrQLenPdf::54                       0                       # What write queue length does an incoming req see (Count)
system.mem_ctrl.wrQLenPdf::55                       0                       # What write queue length does an incoming req see (Count)
system.mem_ctrl.wrQLenPdf::56                       0                       # What write queue length does an incoming req see (Count)
system.mem_ctrl.wrQLenPdf::57                       0                       # What write queue length does an incoming req see (Count)
system.mem_ctrl.wrQLenPdf::58                       0                       # What write queue length does an incoming req see (Count)
system.mem_ctrl.wrQLenPdf::59                       0                       # What write queue length does an incoming req see (Count)
system.mem_ctrl.wrQLenPdf::60                       0                       # What write queue length does an incoming req see (Count)
system.mem_ctrl.wrQLenPdf::61                       0                       # What write queue length does an incoming req see (Count)
system.mem_ctrl.wrQLenPdf::62                       0                       # What write queue length does an incoming req see (Count)
system.mem_ctrl.wrQLenPdf::63                       0                       # What write queue length does an incoming req see (Count)
system.mem_ctrl.rdPerTurnAround::samples        97338                       # Reads before turning the bus around for writes (Count)
system.mem_ctrl.rdPerTurnAround::mean       22.956574                       # Reads before turning the bus around for writes (Count)
system.mem_ctrl.rdPerTurnAround::gmean      19.115531                       # Reads before turning the bus around for writes (Count)
system.mem_ctrl.rdPerTurnAround::stdev      44.562579                       # Reads before turning the bus around for writes (Count)
system.mem_ctrl.rdPerTurnAround::0-127          96435     99.07%     99.07% # Reads before turning the bus around for writes (Count)
system.mem_ctrl.rdPerTurnAround::128-255           51      0.05%     99.12% # Reads before turning the bus around for writes (Count)
system.mem_ctrl.rdPerTurnAround::256-383          111      0.11%     99.24% # Reads before turning the bus around for writes (Count)
[...]
system.mem_ctrl.dram.bytesInstRead::total        44992                       # Number of instructions bytes read from this memory (Byte)
system.mem_ctrl.dram.bytesWritten::writebacks    111901760                       # Number of bytes written to this memory (Byte)
system.mem_ctrl.dram.bytesWritten::total    111901760                       # Number of bytes written to this memory (Byte)
system.mem_ctrl.dram.numReads::cpu.inst           703                       # Number of read requests responded to by this memory (Count)
system.mem_ctrl.dram.numReads::cpu.data       2233931                       # Number of read requests responded to by this memory (Count)
system.mem_ctrl.dram.numReads::total          2234634                       # Number of read requests responded to by this memory (Count)
system.mem_ctrl.dram.numWrites::writebacks      1748465                       # Number of write requests responded to by this memory (Count)
system.mem_ctrl.dram.numWrites::total         1748465                       # Number of write requests responded to by this memory (Count)
system.mem_ctrl.dram.bwRead::cpu.inst           29685                       # Total read bandwidth from this memory ((Byte/Second))
system.mem_ctrl.dram.bwRead::cpu.data        94328902                       # Total read bandwidth from this memory ((Byte/Second))
system.mem_ctrl.dram.bwRead::total           94358587                       # Total read bandwidth from this memory ((Byte/Second))
system.mem_ctrl.dram.bwInstRead::cpu.inst        29685                       # Instruction read bandwidth from this memory ((Byte/Second))
system.mem_ctrl.dram.bwInstRead::total          29685                       # Instruction read bandwidth from this memory ((Byte/Second))
system.mem_ctrl.dram.bwWrite::writebacks     73829847                       # Write bandwidth from this memory ((Byte/Second))
system.mem_ctrl.dram.bwWrite::total          73829847                       # Write bandwidth from this memory ((Byte/Second))
system.mem_ctrl.dram.bwTotal::writebacks     73829847                       # Total bandwidth to/from this memory ((Byte/Second))
system.mem_ctrl.dram.bwTotal::cpu.inst          29685                       # Total bandwidth to/from this memory ((Byte/Second))
system.mem_ctrl.dram.bwTotal::cpu.data       94328902                       # Total bandwidth to/from this memory ((Byte/Second))
system.mem_ctrl.dram.bwTotal::total         168188434                       # Total bandwidth to/from this memory ((Byte/Second))
system.mem_ctrl.dram.readBursts               2234558                       # Number of DRAM read bursts (Count)
system.mem_ctrl.dram.writeBursts              1748437                       # Number of DRAM write bursts (Count)
system.mem_ctrl.dram.perBankRdBursts::0        139714                       # Per bank write bursts (Count)
system.mem_ctrl.dram.perBankRdBursts::1        139749                       # Per bank write bursts (Count)
system.mem_ctrl.dram.perBankRdBursts::2        139757                       # Per bank write bursts (Count)
system.mem_ctrl.dram.perBankRdBursts::3        140029                       # Per bank write bursts (Count)
system.mem_ctrl.dram.perBankRdBursts::4        139771                       # Per bank write bursts (Count)
system.mem_ctrl.dram.perBankRdBursts::5        139117                       # Per bank write bursts (Count)
system.mem_ctrl.dram.perBankRdBursts::6        139620                       # Per bank write bursts (Count)
system.mem_ctrl.dram.perBankRdBursts::7        139634                       # Per bank write bursts (Count)
system.mem_ctrl.dram.perBankRdBursts::8        139886                       # Per bank write bursts (Count)
system.mem_ctrl.dram.perBankRdBursts::9        139636                       # Per bank write bursts (Count)
system.mem_ctrl.dram.perBankRdBursts::10       139585                       # Per bank write bursts (Count)
system.mem_ctrl.dram.perBankRdBursts::11       139605                       # Per bank write bursts (Count)
system.mem_ctrl.dram.perBankRdBursts::12       139623                       # Per bank write bursts (Count)
system.mem_ctrl.dram.perBankRdBursts::13       139602                       # Per bank write bursts (Count)
system.mem_ctrl.dram.perBankRdBursts::14       139606                       # Per bank write bursts (Count)
system.mem_ctrl.dram.perBankRdBursts::15       139624                       # Per bank write bursts (Count)
system.mem_ctrl.dram.perBankWrBursts::0        109235                       # Per bank write bursts (Count)
system.mem_ctrl.dram.perBankWrBursts::1        109341                       # Per bank write bursts (Count)
system.mem_ctrl.dram.perBankWrBursts::2        109335                       # Per bank write bursts (Count)
system.mem_ctrl.dram.perBankWrBursts::3        109523                       # Per bank write bursts (Count)
system.mem_ctrl.dram.perBankWrBursts::4        109435                       # Per bank write bursts (Count)
system.mem_ctrl.dram.perBankWrBursts::5        108857                       # Per bank write bursts (Count)
system.mem_ctrl.dram.perBankWrBursts::6        109257                       # Per bank write bursts (Count)
system.mem_ctrl.dram.perBankWrBursts::7        109247                       # Per bank write bursts (Count)
system.mem_ctrl.dram.perBankWrBursts::8        109546                       # Per bank write bursts (Count)
system.mem_ctrl.dram.perBankWrBursts::9        109271                       # Per bank write bursts (Count)
system.mem_ctrl.dram.perBankWrBursts::10       109230                       # Per bank write bursts (Count)
system.mem_ctrl.dram.perBankWrBursts::11       109230                       # Per bank write bursts (Count)
system.mem_ctrl.dram.perBankWrBursts::12       109230                       # Per bank write bursts (Count)
system.mem_ctrl.dram.perBankWrBursts::13       109231                       # Per bank write bursts (Count)
system.mem_ctrl.dram.perBankWrBursts::14       109236                       # Per bank write bursts (Count)
system.mem_ctrl.dram.perBankWrBursts::15       109233                       # Per bank write bursts (Count)
system.mem_ctrl.dram.totQLat              17648805500                       # Total ticks spent queuing (Tick)
system.mem_ctrl.dram.totBusLat            11172790000                       # Total ticks spent in databus transfers (Tick)
system.mem_ctrl.dram.totMemAccLat         59546768000                       # Total ticks spent from burst creation until serviced by the DRAM (Tick)
system.mem_ctrl.dram.avgQLat                  7898.12                       # Average queueing delay per DRAM burst ((Tick/Count))
system.mem_ctrl.dram.avgBusLat                5000.00                       # Average bus latency per DRAM burst ((Tick/Count))
system.mem_ctrl.dram.avgMemAccLat            26648.12                       # Average memory access latency per DRAM burst ((Tick/Count))
system.mem_ctrl.dram.readRowHits              1819626                       # Number of row buffer hits during reads (Count)
system.mem_ctrl.dram.writeRowHits             1523121                       # Number of row buffer hits during writes (Count)
system.mem_ctrl.dram.readRowHitRate             81.43                       # Row buffer hit rate for reads (Ratio)
system.mem_ctrl.dram.writeRowHitRate            87.11                       # Row buffer hit rate for writes (Ratio)
system.mem_ctrl.dram.bytesPerActivate::samples       640237                       # Bytes accessed per row activation (Byte)
system.mem_ctrl.dram.bytesPerActivate::mean   398.147261                       # Bytes accessed per row activation (Byte)
system.mem_ctrl.dram.bytesPerActivate::gmean   247.404080                       # Bytes accessed per row activation (Byte)
system.mem_ctrl.dram.bytesPerActivate::stdev   355.335288                       # Bytes accessed per row activation (Byte)
system.mem_ctrl.dram.bytesPerActivate::0-127       169901     26.54%     26.54% # Bytes accessed per row activation (Byte)
system.mem_ctrl.dram.bytesPerActivate::128-255        99098     15.48%     42.02% # Bytes accessed per row activation (Byte)
system.mem_ctrl.dram.bytesPerActivate::256-383       134555     21.02%     63.03% # Bytes accessed per row activation (Byte)
system.mem_ctrl.dram.bytesPerActivate::384-511        29693      4.64%     67.67% # Bytes accessed per row activation (Byte)
system.mem_ctrl.dram.bytesPerActivate::512-639        29051      4.54%     72.21% # Bytes accessed per row activation (Byte)
system.mem_ctrl.dram.bytesPerActivate::640-767        33442      5.22%     77.43% # Bytes accessed per row activation (Byte)
system.mem_ctrl.dram.bytesPerActivate::768-895        16026      2.50%     79.93% # Bytes accessed per row activation (Byte)
system.mem_ctrl.dram.bytesPerActivate::896-1023        24753      3.87%     83.80% # Bytes accessed per row activation (Byte)
system.mem_ctrl.dram.bytesPerActivate::1024-1151       103718     16.20%    100.00% # Bytes accessed per row activation (Byte)
system.mem_ctrl.dram.bytesPerActivate::total       640237                       # Bytes accessed per row activation (Byte)
system.mem_ctrl.dram.bytesRead              143011712                       # Total bytes read (Byte)
system.mem_ctrl.dram.bytesWritten           111899968                       # Total bytes written (Byte)
system.mem_ctrl.dram.avgRdBW                94.355378                       # Average DRAM read bandwidth in MiBytes/s ((Byte/Second))
system.mem_ctrl.dram.avgWrBW                73.828665                       # Average DRAM write bandwidth in MiBytes/s ((Byte/Second))
system.mem_ctrl.dram.peakBW                  12800.00                       # Theoretical peak bandwidth in MiByte/s ((Byte/Second))
system.mem_ctrl.dram.busUtil                     1.31                       # Data bus utilization in percentage (Ratio)
system.mem_ctrl.dram.busUtilRead                 0.74                       # Data bus utilization in percentage for reads (Ratio)
system.mem_ctrl.dram.busUtilWrite                0.58                       # Data bus utilization in percentage for writes (Ratio)
system.mem_ctrl.dram.pageHitRate                83.93                       # Row buffer hit rate, read and write combined (Ratio)
system.mem_ctrl.dram.power_state.pwrStateResidencyTicks::UNDEFINED 1515671023000                       # Cumulative time (in ticks) in various power states (Tick)
system.mem_ctrl.dram.rank0.actEnergy       2293503660                       # Energy for activate commands per rank (pJ) (Joule)
system.mem_ctrl.dram.rank0.preEnergy       1219003335                       # Energy for precharge commands per rank (pJ) (Joule)
system.mem_ctrl.dram.rank0.readEnergy      7978171740                       # Energy for read commands per rank (pJ) (Joule)
system.mem_ctrl.dram.rank0.writeEnergy     4563480600                       # Energy for write commands per rank (pJ) (Joule)
system.mem_ctrl.dram.rank0.refreshEnergy 119645207760.000015                       # Energy for refresh commands per rank (pJ) (Joule)
system.mem_ctrl.dram.rank0.actBackEnergy 404963375910                       # Energy for active background per rank (pJ) (Joule)
system.mem_ctrl.dram.rank0.preBackEnergy 240995882880                       # Energy for precharge background per rank (pJ) (Joule)
system.mem_ctrl.dram.rank0.actPowerDownEnergy            0                       # Energy for active power-down per rank (pJ) (Joule)
system.mem_ctrl.dram.rank0.prePowerDownEnergy            0                       # Energy for precharge power-down per rank (pJ) (Joule)
system.mem_ctrl.dram.rank0.selfRefreshEnergy            0                       # Energy for self refresh per rank (pJ) (Joule)
system.mem_ctrl.dram.rank0.totalEnergy   781658625885                       # Total energy per rank (pJ) (Joule)
system.mem_ctrl.dram.rank0.averagePower    515.717866                       # Core power per rank (mW) (Watt)
system.mem_ctrl.dram.rank0.totalIdleTime            0                       # Total Idle time Per DRAM Rank (Tick)
system.mem_ctrl.dram.rank0.pwrStateTime::IDLE 622146827500                       # Time in different power states (Tick)
system.mem_ctrl.dram.rank0.pwrStateTime::REF  50611340000                       # Time in different power states (Tick)
system.mem_ctrl.dram.rank0.pwrStateTime::SREF            0                       # Time in different power states (Tick)
system.mem_ctrl.dram.rank0.pwrStateTime::PRE_PDN            0                       # Time in different power states (Tick)
system.mem_ctrl.dram.rank0.pwrStateTime::ACT 842912855500                       # Time in different power states (Tick)
system.mem_ctrl.dram.rank0.pwrStateTime::ACT_PDN            0                       # Time in different power states (Tick)
system.mem_ctrl.dram.rank1.actEnergy       2277867060                       # Energy for activate commands per rank (pJ) (Joule)
system.mem_ctrl.dram.rank1.preEnergy       1210696080                       # Energy for precharge commands per rank (pJ) (Joule)
system.mem_ctrl.dram.rank1.readEnergy      7976572380                       # Energy for read commands per rank (pJ) (Joule)
system.mem_ctrl.dram.rank1.writeEnergy     4563360540                       # Energy for write commands per rank (pJ) (Joule)
system.mem_ctrl.dram.rank1.refreshEnergy 119645207760.000015                       # Energy for refresh commands per rank (pJ) (Joule)
system.mem_ctrl.dram.rank1.actBackEnergy 403912144860                       # Energy for active background per rank (pJ) (Joule)
system.mem_ctrl.dram.rank1.preBackEnergy 241881130080                       # Energy for precharge background per rank (pJ) (Joule)
system.mem_ctrl.dram.rank1.actPowerDownEnergy            0                       # Energy for active power-down per rank (pJ) (Joule)
system.mem_ctrl.dram.rank1.prePowerDownEnergy            0                       # Energy for precharge power-down per rank (pJ) (Joule)
system.mem_ctrl.dram.rank1.selfRefreshEnergy            0                       # Energy for self refresh per rank (pJ) (Joule)
system.mem_ctrl.dram.rank1.totalEnergy   781466978760                       # Total energy per rank (pJ) (Joule)
system.mem_ctrl.dram.rank1.averagePower    515.591422                       # Core power per rank (mW) (Watt)
system.mem_ctrl.dram.rank1.totalIdleTime            0                       # Total Idle time Per DRAM Rank (Tick)
system.mem_ctrl.dram.rank1.pwrStateTime::IDLE 624491658500                       # Time in different power states (Tick)
system.mem_ctrl.dram.rank1.pwrStateTime::REF  50611340000                       # Time in different power states (Tick)
system.mem_ctrl.dram.rank1.pwrStateTime::SREF            0                       # Time in different power states (Tick)
system.mem_ctrl.dram.rank1.pwrStateTime::PRE_PDN            0                       # Time in different power states (Tick)
system.mem_ctrl.dram.rank1.pwrStateTime::ACT 840568024500                       # Time in different power states (Tick)
system.mem_ctrl.dram.rank1.pwrStateTime::ACT_PDN            0                       # Time in different power states (Tick)
system.mem_ctrl.power_state.pwrStateResidencyTicks::UNDEFINED 1515671023000                       # Cumulative time (in ticks) in various power states (Tick)
system.membus.transDist::ReadResp             1715274                       # Transaction distribution (Count)
system.membus.transDist::WritebackDirty       1748465                       # Transaction distribution (Count)
system.membus.transDist::CleanEvict            481912                       # Transaction distribution (Count)
system.membus.transDist::ReadExReq             519360                       # Transaction distribution (Count)
system.membus.transDist::ReadExResp            519360                       # Transaction distribution (Count)
system.membus.transDist::ReadSharedReq        1715274                       # Transaction distribution (Count)
system.membus.pktCount_system.l2cache.mem_side_port::system.mem_ctrl.port      6699645                       # Packet count per connected requestor and responder (Count)
system.membus.pktCount::total                 6699645                       # Packet count per connected requestor and responder (Count)
system.membus.pktSize_system.l2cache.mem_side_port::system.mem_ctrl.port    254918336                       # Cumulative packet size per connected requestor and responder (Byte)
system.membus.pktSize::total                254918336                       # Cumulative packet size per connected requestor and responder (Byte)
system.membus.snoops                                0                       # Total snoops (Count)
system.membus.snoopTraffic                          0                       # Total snoop traffic (Byte)
system.membus.snoopFanout::samples            2234634                       # Request fanout histogram (Count)
system.membus.snoopFanout::mean                     0                       # Request fanout histogram (Count)
system.membus.snoopFanout::stdev                    0                       # Request fanout histogram (Count)
system.membus.snoopFanout::underflows               0      0.00%      0.00% # Request fanout histogram (Count)
system.membus.snoopFanout::0                  2234634    100.00%    100.00% # Request fanout histogram (Count)
system.membus.snoopFanout::1                        0      0.00%    100.00% # Request fanout histogram (Count)
system.membus.snoopFanout::overflows                0      0.00%    100.00% # Request fanout histogram (Count)
system.membus.snoopFanout::min_value                0                       # Request fanout histogram (Count)
system.membus.snoopFanout::max_value                0                       # Request fanout histogram (Count)
system.membus.snoopFanout::total              2234634                       # Request fanout histogram (Count)
system.membus.power_state.pwrStateResidencyTicks::UNDEFINED 1515671023000                       # Cumulative time (in ticks) in various power states (Tick)
system.membus.reqLayer0.occupancy         11458871000                       # Layer occupancy (ticks) (Tick)
system.membus.reqLayer0.utilization               0.0                       # Layer utilization (Ratio)
system.membus.respLayer0.occupancy        11840905500                       # Layer occupancy (ticks) (Tick)
system.membus.respLayer0.utilization              0.0                       # Layer utilization (Ratio)
system.membus.snoop_filter.totRequests        4465011                       # Total number of requests made to the snoop filter. (Count)
system.membus.snoop_filter.hitSingleRequests      2230377                       # Number of requests hitting in the snoop filter with a single holder of the requested data. (Count)
system.membus.snoop_filter.hitMultiRequests            0                       # Number of requests hitting in the snoop filter with multiple (>1) holders of the requested data. (Count)
system.membus.snoop_filter.totSnoops                0                       # Total number of snoops made to the snoop filter. (Count)
system.membus.snoop_filter.hitSingleSnoops            0                       # Number of snoops hitting in the snoop filter with a single holder of the requested data. (Count)
system.membus.snoop_filter.hitMultiSnoops            0                       # Number of snoops hitting in the snoop filter with multiple (>1) holders of the requested data. (Count)
system.workload.inst.arm                            0                       # number of arm instructions executed (Count)
system.workload.inst.quiesce                        0                       # number of quiesce instructions executed (Count)

---------- End Simulation Statistics   ----------
