
---------- Begin Simulation Statistics ----------
simSeconds                                   0.093825                       # Number of seconds simulated (Second)
simTicks                                  93824931000                       # Number of ticks simulated (Tick)
finalTick                                 93824931000                       # Number of ticks from beginning of simulation (restored from checkpoints and never reset) (Tick)
simFreq                                  1000000000000                       # The number of ticks per simulated second ((Tick/Second))
hostSeconds                                     17.83                       # Real time elapsed on the host (Second)
hostTickRate                               5261496672                       # The number of ticks simulated per host second (ticks/s) ((Tick/Second))
hostMemory                                    9060532                       # Number of bytes of host memory used (Byte)
simInsts                                     28026386                       # Number of instructions simulated (Count)
simOps                                       28026386                       # Number of ops (including micro ops) simulated (Count)
hostInstRate                                  1571650                       # Simulator instruction rate (inst/s) ((Count/Second))
hostOpRate                                    1571650                       # Simulator op (including micro ops) rate (op/s) ((Count/Second))
system.clk_domain.clock                          1000                       # Clock period in ticks (Tick)
system.clk_domain.voltage_domain.voltage            1                       # Voltage in Volts (Volt)
system.cpu.numCycles                         93824931                       # Number of cpu cycles simulated (Cycle)
system.cpu.numWorkItemsStarted                      0                       # Number of work items this cpu started (Count)
system.cpu.numWorkItemsCompleted                    0                       # Number of work items this cpu completed (Count)
system.cpu.dcache.demandHits::cpu.data        9854686                       # number of demand (read+write) hits (Count)
system.cpu.dcache.demandHits::total           9854686                       # number of demand (read+write) hits (Count)
system.cpu.dcache.overallHits::cpu.data       9854686                       # number of overall hits (Count)
system.cpu.dcache.overallHits::total          9854686                       # number of overall hits (Count)
system.cpu.dcache.demandMisses::cpu.data       631496                       # number of demand (read+write) misses (Count)
system.cpu.dcache.demandMisses::total          631496                       # number of demand (read+write) misses (Count)
system.cpu.dcache.overallMisses::cpu.data       631496                       # number of overall misses (Count)
system.cpu.dcache.overallMisses::total         631496                       # number of overall misses (Count)
system.cpu.dcache.demandMissLatency::cpu.data  17952198000                       # number of demand (read+write) miss ticks (Tick)
system.cpu.dcache.demandMissLatency::total  17952198000                       # number of demand (read+write) miss ticks (Tick)
system.cpu.dcache.overallMissLatency::cpu.data  17952198000                       # number of overall miss ticks (Tick)
system.cpu.dcache.overallMissLatency::total  17952198000                       # number of overall miss ticks (Tick)
system.cpu.dcache.demandAccesses::cpu.data     10486182                       # number of demand (read+write) accesses (Count)
system.cpu.dcache.demandAccesses::total      10486182                       # number of demand (read+write) accesses (Count)
system.cpu.dcache.overallAccesses::cpu.data     10486182                       # number of overall (read+write) accesses (Count)
system.cpu.dcache.overallAccesses::total     10486182                       # number of overall (read+write) accesses (Count)
system.cpu.dcache.demandMissRate::cpu.data     0.060222                       # miss rate for demand accesses (Ratio)
system.cpu.dcache.demandMissRate::total      0.060222                       # miss rate for demand accesses (Ratio)
system.cpu.dcache.overallMissRate::cpu.data     0.060222                       # miss rate for overall accesses (Ratio)
system.cpu.dcache.overallMissRate::total     0.060222                       # miss rate for overall accesses (Ratio)
system.cpu.dcache.demandAvgMissLatency::cpu.data 28428.047050                       # average overall miss latency ((Cycle/Count))
system.cpu.dcache.demandAvgMissLatency::total 28428.047050                       # average overall miss latency ((Cycle/Count))
system.cpu.dcache.overallAvgMissLatency::cpu.data 28428.047050                       # average overall miss latency ((Cycle/Count))
system.cpu.dcache.overallAvgMissLatency::total 28428.047050                       # average overall miss latency ((Cycle/Count))
system.cpu.dcache.blockedCycles::no_mshrs            0                       # number of cycles access was blocked (Cycle)
system.cpu.dcache.blockedCycles::no_targets            0                       # number of cycles access was blocked (Cycle)
system.cpu.dcache.blockedCauses::no_mshrs            0                       # number of times access was blocked (Count)
system.cpu.dcache.blockedCauses::no_targets            0                       # number of times access was blocked (Count)
system.cpu.dcache.avgBlocked::no_mshrs            nan                       # average number of cycles each access was blocked ((Cycle/Count))
system.cpu.dcache.avgBlocked::no_targets          nan                       # average number of cycles each access was blocked ((Cycle/Count))
system.cpu.dcache.writebacks::writebacks       630368                       # number of writebacks (Count)
system.cpu.dcache.writebacks::total            630368                       # number of writebacks (Count)
system.cpu.dcache.demandMshrMisses::cpu.data       631496                       # number of demand (read+write) MSHR misses (Count)
system.cpu.dcache.demandMshrMisses::total       631496                       # number of demand (read+write) MSHR misses (Count)
system.cpu.dcache.overallMshrMisses::cpu.data       631496                       # number of overall MSHR misses (Count)
system.cpu.dcache.overallMshrMisses::total       631496                       # number of overall MSHR misses (Count)
system.cpu.dcache.demandMshrMissLatency::cpu.data  16689206000                       # number of demand (read+write) MSHR miss ticks (Tick)
system.cpu.dcache.demandMshrMissLatency::total  16689206000                       # number of demand (read+write) MSHR miss ticks (Tick)
system.cpu.dcache.overallMshrMissLatency::cpu.data  16689206000                       # number of overall MSHR miss ticks (Tick)
system.cpu.dcache.overallMshrMissLatency::total  16689206000                       # number of overall MSHR miss ticks (Tick)
system.cpu.dcache.demandMshrMissRate::cpu.data     0.060222                       # mshr miss ratio for demand accesses (Ratio)
system.cpu.dcache.demandMshrMissRate::total     0.060222                       # mshr miss ratio for demand accesses (Ratio)
system.cpu.dcache.overallMshrMissRate::cpu.data     0.060222                       # mshr miss ratio for overall accesses (Ratio)
system.cpu.dcache.overallMshrMissRate::total     0.060222                       # mshr miss ratio for overall accesses (Ratio)
system.cpu.dcache.demandAvgMshrMissLatency::cpu.data 26428.047050                       # average overall mshr miss latency ((Cycle/Count))
system.cpu.dcache.demandAvgMshrMissLatency::total 26428.047050                       # average overall mshr miss latency ((Cycle/Count))
system.cpu.dcache.overallAvgMshrMissLatency::cpu.data 26428.047050                       # average overall mshr miss latency ((Cycle/Count))
system.cpu.dcache.overallAvgMshrMissLatency::total 26428.047050                       # average overall mshr miss latency ((Cycle/Count))
system.cpu.dcache.replacements                 630975                       # number of replacements (Count)
system.cpu.dcache.ReadReq.hits::cpu.data      6042731                       # number of ReadReq hits (Count)
system.cpu.dcache.ReadReq.hits::total         6042731                       # number of ReadReq hits (Count)
system.cpu.dcache.ReadReq.misses::cpu.data       490474                       # number of ReadReq misses (Count)
system.cpu.dcache.ReadReq.misses::total        490474                       # number of ReadReq misses (Count)
system.cpu.dcache.ReadReq.missLatency::cpu.data  12860342000                       # number of ReadReq miss ticks (Tick)
system.cpu.dcache.ReadReq.missLatency::total  12860342000                       # number of ReadReq miss ticks (Tick)
system.cpu.dcache.ReadReq.accesses::cpu.data      6533205                       # number of ReadReq accesses(hits+misses) (Count)
system.cpu.dcache.ReadReq.accesses::total      6533205                       # number of ReadReq accesses(hits+misses) (Count)
system.cpu.dcache.ReadReq.missRate::cpu.data     0.075074                       # miss rate for ReadReq accesses (Ratio)
system.cpu.dcache.ReadReq.missRate::total     0.075074                       # miss rate for ReadReq accesses (Ratio)
system.cpu.dcache.ReadReq.avgMissLatency::cpu.data 26220.231857                       # average ReadReq miss latency ((Tick/Count))
system.cpu.dcache.ReadReq.avgMissLatency::total 26220.231857                       # average ReadReq miss latency ((Tick/Count))
system.cpu.dcache.ReadReq.mshrMisses::cpu.data       490474                       # number of ReadReq MSHR misses (Count)
system.cpu.dcache.ReadReq.mshrMisses::total       490474                       # number of ReadReq MSHR misses (Count)
system.cpu.dcache.ReadReq.mshrMissLatency::cpu.data  11879394000                       # number of ReadReq MSHR miss ticks (Tick)
system.cpu.dcache.ReadReq.mshrMissLatency::total  11879394000                       # number of ReadReq MSHR miss ticks (Tick)
system.cpu.dcache.ReadReq.mshrMissRate::cpu.data     0.075074                       # mshr miss rate for ReadReq accesses (Ratio)
system.cpu.dcache.ReadReq.mshrMissRate::total     0.075074                       # mshr miss rate for ReadReq accesses (Ratio)
system.cpu.dcache.ReadReq.avgMshrMissLatency::cpu.data 24220.231857                       # average ReadReq mshr miss latency ((Tick/Count))
system.cpu.dcache.ReadReq.avgMshrMissLatency::total 24220.231857                       # average ReadReq mshr miss latency ((Tick/Count))
system.cpu.dcache.WriteReq.hits::cpu.data      3811955                       # number of WriteReq hits (Count)
system.cpu.dcache.WriteReq.hits::total        3811955                       # number of WriteReq hits (Count)
system.cpu.dcache.WriteReq.misses::cpu.data       141022                       # number of WriteReq misses (Count)
system.cpu.dcache.WriteReq.misses::total       141022                       # number of WriteReq misses (Count)
system.cpu.dcache.WriteReq.missLatency::cpu.data   5091856000                       # number of WriteReq miss ticks (Tick)
system.cpu.dcache.WriteReq.missLatency::total   5091856000                       # number of WriteReq miss ticks (Tick)
system.cpu.dcache.WriteReq.accesses::cpu.data      3952977                       # number of WriteReq accesses(hits+misses) (Count)
system.cpu.dcache.WriteReq.accesses::total      3952977                       # number of WriteReq accesses(hits+misses) (Count)
system.cpu.dcache.WriteReq.missRate::cpu.data     0.035675                       # miss rate for WriteReq accesses (Ratio)
system.cpu.dcache.WriteReq.missRate::total     0.035675                       # miss rate for WriteReq accesses (Ratio)
system.cpu.dcache.WriteReq.avgMissLatency::cpu.data 36106.820212                       # average WriteReq miss latency ((Tick/Count))
system.cpu.dcache.WriteReq.avgMissLatency::total 36106.820212                       # average WriteReq miss latency ((Tick/Count))
system.cpu.dcache.WriteReq.mshrMisses::cpu.data       141022                       # number of WriteReq MSHR misses (Count)
system.cpu.dcache.WriteReq.mshrMisses::total       141022                       # number of WriteReq MSHR misses (Count)
system.cpu.dcache.WriteReq.mshrMissLatency::cpu.data   4809812000                       # number of WriteReq MSHR miss ticks (Tick)
system.cpu.dcache.WriteReq.mshrMissLatency::total   4809812000                       # number of WriteReq MSHR miss ticks (Tick)
system.cpu.dcache.WriteReq.mshrMissRate::cpu.data     0.035675                       # mshr miss rate for WriteReq accesses (Ratio)
system.cpu.dcache.WriteReq.mshrMissRate::total     0.035675                       # mshr miss rate for WriteReq accesses (Ratio)
system.cpu.dcache.WriteReq.avgMshrMissLatency::cpu.data 34106.820212                       # average WriteReq mshr miss latency ((Tick/Count))
system.cpu.dcache.WriteReq.avgMshrMissLatency::total 34106.820212                       # average WriteReq mshr miss latency ((Tick/Count))
system.cpu.dcache.power_state.pwrStateResidencyTicks::UNDEFINED  93824931000                       # Cumulative time (in ticks) in various power states (Tick)
system.cpu.dcache.tags.tagsInUse           510.284232                       # Average ticks per tags in use ((Tick/Count))
system.cpu.dcache.tags.totalRefs             10486182                       # Total number of references to valid blocks. (Count)
system.cpu.dcache.tags.sampledRefs             631487                       # Sample count of references to valid blocks. (Count)
system.cpu.dcache.tags.avgRefs              16.605539                       # Average number of references to valid blocks. ((Count/Count))
system.cpu.dcache.tags.warmupTick              390000                       # The tick when the warmup percentage was hit. (Tick)
system.cpu.dcache.tags.occupancies::cpu.data   510.284232                       # Average occupied blocks per tick, per requestor ((Count/Tick))
system.cpu.dcache.tags.avgOccs::cpu.data     0.996649                       # Average percentage of cache occupancy ((Ratio/Tick))
system.cpu.dcache.tags.avgOccs::total        0.996649                       # Average percentage of cache occupancy ((Ratio/Tick))
system.cpu.dcache.tags.occupanciesTaskId::1024          512                       # Occupied blocks per task id (Count)
system.cpu.dcache.tags.ageTaskId_1024::0           13                       # Occupied blocks per task id, per block age (Count)
system.cpu.dcache.tags.ageTaskId_1024::1          147                       # Occupied blocks per task id, per block age (Count)
system.cpu.dcache.tags.ageTaskId_1024::2          352                       # Occupied blocks per task id, per block age (Count)
system.cpu.dcache.tags.ratioOccsTaskId::1024            1                       # Ratio of occupied blocks and all blocks, per task id (Ratio)
system.cpu.dcache.tags.tagAccesses           11117669                       # Number of tag accesses (Count)
system.cpu.dcache.tags.dataAccesses          11117669                       # Number of data accesses (Count)
system.cpu.dcache.tags.power_state.pwrStateResidencyTicks::UNDEFINED  93824931000                       # Cumulative time (in ticks) in various power states (Tick)
system.cpu.exec_context.thread_0.numInsts     28026386                       # Number of instructions committed (Count)
system.cpu.exec_context.thread_0.numOps      28026386                       # Number of ops (including micro ops) committed (Count)
system.cpu.exec_context.thread_0.numIntAluAccesses     27616692                       # Number of integer alu accesses (Count)
system.cpu.exec_context.thread_0.numFpAluAccesses           18                       # Number of float alu accesses (Count)
system.cpu.exec_context.thread_0.numVecAluAccesses            0                       # Number of vector alu accesses (Count)
system.cpu.exec_context.thread_0.numCallsReturns       240834                       # Number of times a function call or return occured (Count)
system.cpu.exec_context.thread_0.numCondCtrlInsts      3718044                       # Number of instructions that are conditional controls (Count)
system.cpu.exec_context.thread_0.numIntInsts     27616692                       # Number of integer instructions (Count)
system.cpu.exec_context.thread_0.numFpInsts           18                       # Number of float instructions (Count)
system.cpu.exec_context.thread_0.numVecInsts            0                       # Number of vector instructions (Count)
system.cpu.exec_context.thread_0.numIntRegReads     50902458                       # Number of times the integer registers were read (Count)
system.cpu.exec_context.thread_0.numIntRegWrites     24724168                       # Number of times the integer registers were written (Count)
system.cpu.exec_context.thread_0.numFpRegReads           18                       # Number of times the floating registers were read (Count)
system.cpu.exec_context.thread_0.numFpRegWrites            0                       # Number of times the floating registers were written (Count)
system.cpu.exec_context.thread_0.numVecRegReads            0                       # Number of times the vector registers were read (Count)
system.cpu.exec_context.thread_0.numVecRegWrites            0                       # Number of times the vector registers were written (Count)
system.cpu.exec_context.thread_0.numVecPredRegReads            0                       # Number of times the predicate registers were read (Count)
system.cpu.exec_context.thread_0.numVecPredRegWrites            0                       # Number of times the predicate registers were written (Count)
system.cpu.exec_context.thread_0.numMiscRegReads            0                       # Number of times the Misc registers were read (Count)
system.cpu.exec_context.thread_0.numMiscRegWrites            0                       # Number of times the Misc registers were written (Count)
system.cpu.exec_context.thread_0.numMemRefs     10486316                       # Number of memory refs (Count)
system.cpu.exec_context.thread_0.numLoadInsts      6533204                       # Number of load instructions (Count)
system.cpu.exec_context.thread_0.numStoreInsts      3953112                       # Number of store instructions (Count)
system.cpu.exec_context.thread_0.numIdleCycles     0.001000                       # Number of idle cycles (Cycle)
system.cpu.exec_context.thread_0.numBusyCycles 93824930.999000                       # Number of busy cycles (Cycle)
system.cpu.exec_context.thread_0.notIdleFraction     1.000000                       # Percentage of non-idle cycles (Ratio)
system.cpu.exec_context.thread_0.idleFraction     0.000000                       # Percentage of idle cycles (Ratio)
system.cpu.exec_context.thread_0.numBranches      4368477                       # Number of branches fetched (Count)
system.cpu.exec_context.thread_0.statExecutedInstType::No_OpClass            0      0.00%      0.00% # Class of executed instruction. (Count)
system.cpu.exec_context.thread_0.statExecutedInstType::IntAlu     17540218     62.58%     62.58% # Class of executed instruction. (Count)
system.cpu.exec_context.thread_0.statExecutedInstType::IntMult            0      0.00%     62.58% # Class of executed instruction. (Count)
system.cpu.exec_context.thread_0.statExecutedInstType::IntDiv            0      0.00%     62.58% # Class of executed instruction. (Count)
system.cpu.exec_context.thread_0.statExecutedInstType::FloatAdd            0      0.00%     62.58% # Class of executed instruction. (Count)
system.cpu.exec_context.thread_0.statExecutedInstType::FloatCmp            0      0.00%     62.58% # Class of executed instruction. (Count)
system.cpu.exec_context.thread_0.statExecutedInstType::FloatCvt            0      0.00%     62.58% # Class of executed instruction. (Count)
system.cpu.exec_context.thread_0.statExecutedInstType::FloatMult            0      0.00%     62.58% # Class of executed instruction. (Count)
system.cpu.exec_context.thread_0.statExecutedInstType::FloatMultAcc            0      0.00%     62.58% # Class of executed instruction. (Count)
system.cpu.exec_context.thread_0.statExecutedInstType::FloatDiv            0      0.00%     62.58% # Class of executed instruction. (Count)
system.cpu.exec_context.thread_0.statExecutedInstType::FloatMisc            0      0.00%     62.58% # Class of executed instruction. (Count)
system.cpu.exec_context.thread_0.statExecutedInstType::FloatSqrt            0      0.00%     62.58% # Class of executed instruction. (Count)
system.cpu.exec_context.thread_0.statExecutedInstType::SimdAdd            0      0.00%     62.58% # Class of executed instruction. (Count)
system.cpu.exec_context.thread_0.statExecutedInstType::SimdAddAcc            0      0.00%     62.58% # Class of executed instruction. (Count)
system.cpu.exec_context.thread_0.statExecutedInstType::SimdAlu            0      0.00%     62.58% # Class of executed instruction. (Count)
system.cpu.exec_context.thread_0.statExecutedInstType::SimdCmp            0      0.00%     62.58% # Class of executed instruction. (Count)
system.cpu.exec_context.thread_0.statExecutedInstType::SimdCvt            0      0.00%     62.58% # Class of executed instruction. (Count)
system.cpu.exec_context.thread_0.statExecutedInstType::SimdMisc            0      0.00%     62.58% # Class of executed instruction. (Count)
system.cpu.exec_context.thread_0.statExecutedInstType::SimdMult            0      0.00%     62.58% # Class of executed instruction. (Count)
system.cpu.exec_context.thread_0.statExecutedInstType::SimdMultAcc            0      0.00%     62.58% # Class of executed instruction. (Count)
system.cpu.exec_context.thread_0.statExecutedInstType::SimdShift            0      0.00%     62.58% # Class of executed instruction. (Count)
system.cpu.exec_context.thread_0.statExecutedInstType::SimdShiftAcc            0      0.00%     62.58% # Class of executed instruction. (Count)
system.cpu.exec_context.thread_0.statExecutedInstType::SimdDiv            0      0.00%     62.58% # Class of executed instruction. (Count)
system.cpu.exec_context.thread_0.statExecutedInstType::SimdSqrt            0      0.00%     62.58% # Class of executed instruction. (Count)
system.cpu.exec_context.thread_0.statExecutedInstType::SimdFloatAdd            0      0.00%     62.58% # Class of executed instruction. (Count)
system.cpu.exec_context.thread_0.statExecutedInstType::SimdFloatAlu            0      0.00%     62.58% # Class of executed instruction. (Count)
system.cpu.exec_context.thread_0.statExecutedInstType::SimdFloatCmp            0      0.00%     62.58% # Class of executed instruction. (Count)
system.cpu.exec_context.thread_0.statExecutedInstType::SimdFloatCvt            0      0.00%     62.58% # Class of executed instruction. (Count)
system.cpu.exec_context.thread_0.statExecutedInstType::SimdFloatDiv            0      0.00%     62.58% # Class of executed instruction. (Count)
system.cpu.exec_context.thread_0.statExecutedInstType::SimdFloatMisc            0      0.00%     62.58% # Class of executed instruction. (Count)
system.cpu.exec_context.thread_0.statExecutedInstType::SimdFloatMult            0      0.00%     62.58% # Class of executed instruction. (Count)
system.cpu.exec_context.thread_0.statExecutedInstType::SimdFloatMultAcc            0      0.00%     62.58% # Class of executed instruction. (Count)
system.cpu.exec_context.thread_0.statExecutedInstType::SimdFloatSqrt            0      0.00%     62.58% # Class of executed instruction. (Count)
system.cpu.exec_context.thread_0.statExecutedInstType::SimdReduceAdd            0      0.00%     62.58% # Class of executed instruction. (Count)
system.cpu.exec_context.thread_0.statExecutedInstType::SimdReduceAlu            0      0.00%     62.58% # Class of executed instruction. (Count)
system.cpu.exec_context.thread_0.statExecutedInstType::SimdReduceCmp            0      0.00%     62.58% # Class of executed instruction. (Count)
system.cpu.exec_context.thread_0.statExecutedInstType::SimdFloatReduceAdd            0      0.00%     62.58% # Class of executed instruction. (Count)
system.cpu.exec_context.thread_0.statExecutedInstType::SimdFloatReduceCmp            0      0.00%     62.58% # Class of executed instruction. (Count)
system.cpu.exec_context.thread_0.statExecutedInstType::SimdAes            0      0.00%     62.58% # Class of executed instruction. (Count)
system.cpu.exec_context.thread_0.statExecutedInstType::SimdAesMix            0      0.00%     62.58% # Class of executed instruction. (Count)
system.cpu.exec_context.thread_0.statExecutedInstType::SimdSha1Hash            0      0.00%     62.58% # Class of executed instruction. (Count)
system.cpu.exec_context.thread_0.statExecutedInstType::SimdSha1Hash2            0      0.00%     62.58% # Class of executed instruction. (Count)
system.cpu.exec_context.thread_0.statExecutedInstType::SimdSha256Hash            0      0.00%     62.58% # Class of executed instruction. (Count)
system.cpu.exec_context.thread_0.statExecutedInstType::SimdSha256Hash2            0      0.00%     62.58% # Class of executed instruction. (Count)
system.cpu.exec_context.thread_0.statExecutedInstType::SimdShaSigma2            0      0.00%     62.58% # Class of executed instruction. (Count)
system.cpu.exec_context.thread_0.statExecutedInstType::SimdShaSigma3            0      0.00%     62.58% # Class of executed instruction. (Count)
system.cpu.exec_context.thread_0.statExecutedInstType::SimdPredAlu            0      0.00%     62.58% # Class of executed instruction. (Count)
system.cpu.exec_context.thread_0.statExecutedInstType::MemRead      6533204     23.31%     85.90% # Class of executed instruction. (Count)
system.cpu.exec_context.thread_0.statExecutedInstType::MemWrite      3953094     14.10%    100.00% # Class of executed instruction. (Count)
system.cpu.exec_context.thread_0.statExecutedInstType::FloatMemRead            0      0.00%    100.00% # Class of executed instruction. (Count)
system.cpu.exec_context.thread_0.statExecutedInstType::FloatMemWrite           18      0.00%    100.00% # Class of executed instruction. (Count)
system.cpu.exec_context.thread_0.statExecutedInstType::IprAccess            0      0.00%    100.00% # Class of executed instruction. (Count)
system.cpu.exec_context.thread_0.statExecutedInstType::InstPrefetch            0      0.00%    100.00% # Class of executed instruction. (Count)
system.cpu.exec_context.thread_0.statExecutedInstType::total     28026534                       # Class of executed instruction. (Count)
system.cpu.icache.demandHits::cpu.inst       28025802                       # number of demand (read+write) hits (Count)
system.cpu.icache.demandHits::total          28025802                       # number of demand (read+write) hits (Count)
system.cpu.icache.overallHits::cpu.inst      28025802                       # number of overall hits (Count)
system.cpu.icache.overallHits::total         28025802                       # number of overall hits (Count)
system.cpu.icache.demandMisses::cpu.inst          732                       # number of demand (read+write) misses (Count)
system.cpu.icache.demandMisses::total             732                       # number of demand (read+write) misses (Count)
system.cpu.icache.overallMisses::cpu.inst          732                       # number of overall misses (Count)
system.cpu.icache.overallMisses::total            732                       # number of overall misses (Count)
system.cpu.icache.demandMissLatency::cpu.inst    111952000                       # number of demand (read+write) miss ticks (Tick)
system.cpu.icache.demandMissLatency::total    111952000                       # number of demand (read+write) miss ticks (Tick)
system.cpu.icache.overallMissLatency::cpu.inst    111952000                       # number of overall miss ticks (Tick)
system.cpu.icache.overallMissLatency::total    111952000                       # number of overall miss ticks (Tick)
system.cpu.icache.demandAccesses::cpu.inst     28026534                       # number of demand (read+write) accesses (Count)
system.cpu.icache.demandAccesses::total      28026534                       # number of demand (read+write) accesses (Count)
system.cpu.icache.overallAccesses::cpu.inst     28026534                       # number of overall (read+write) accesses (Count)
system.cpu.icache.overallAccesses::total     28026534                       # number of overall (read+write) accesses (Count)
system.cpu.icache.demandMissRate::cpu.inst     0.000026                       # miss rate for demand accesses (Ratio)
system.cpu.icache.demandMissRate::total      0.000026                       # miss rate for demand accesses (Ratio)
system.cpu.icache.overallMissRate::cpu.inst     0.000026                       # miss rate for overall accesses (Ratio)
system.cpu.icache.overallMissRate::total     0.000026                       # miss rate for overall accesses (Ratio)
system.cpu.icache.demandAvgMissLatency::cpu.inst 152939.890710                       # average overall miss latency ((Cycle/Count))
system.cpu.icache.demandAvgMissLatency::total 152939.890710                       # average overall miss latency ((Cycle/Count))
system.cpu.icache.overallAvgMissLatency::cpu.inst 152939.890710                       # average overall miss latency ((Cycle/Count))
system.cpu.icache.overallAvgMissLatency::total 152939.890710                       # average overall miss latency ((Cycle/Count))
system.cpu.icache.blockedCycles::no_mshrs            0                       # number of cycles access was blocked (Cycle)
system.cpu.icache.blockedCycles::no_targets            0                       # number of cycles access was blocked (Cycle)
system.cpu.icache.blockedCauses::no_mshrs            0                       # number of times access was blocked (Count)
system.cpu.icache.blockedCauses::no_targets            0                       # number of times access was blocked (Count)
system.cpu.icache.avgBlocked::no_mshrs            nan                       # average number of cycles each access was blocked ((Cycle/Count))
system.cpu.icache.avgBlocked::no_targets          nan                       # average number of cycles each access was blocked ((Cycle/Count))
system.cpu.icache.demandMshrMisses::cpu.inst          732                       # number of demand (read+write) MSHR misses (Count)
system.cpu.icache.demandMshrMisses::total          732                       # number of demand (read+write) MSHR misses (Count)
system.cpu.icache.overallMshrMisses::cpu.inst          732                       # number of overall MSHR misses (Count)
system.cpu.icache.overallMshrMisses::total          732                       # number of overall MSHR misses (Count)
system.cpu.icache.demandMshrMissLatency::cpu.inst    110488000                       # number of demand (read+write) MSHR miss ticks (Tick)
system.cpu.icache.demandMshrMissLatency::total    110488000                       # number of demand (read+write) MSHR miss ticks (Tick)
system.cpu.icache.overallMshrMissLatency::cpu.inst    110488000                       # number of overall MSHR miss ticks (Tick)
system.cpu.icache.overallMshrMissLatency::total    110488000                       # number of overall MSHR miss ticks (Tick)
system.cpu.icache.demandMshrMissRate::cpu.inst     0.000026                       # mshr miss ratio for demand accesses (Ratio)
system.cpu.icache.demandMshrMissRate::total     0.000026                       # mshr miss ratio for demand accesses (Ratio)
system.cpu.icache.overallMshrMissRate::cpu.inst     0.000026                       # mshr miss ratio for overall accesses (Ratio)
system.cpu.icache.overallMshrMissRate::total     0.000026                       # mshr miss ratio for overall accesses (Ratio)
system.cpu.icache.demandAvgMshrMissLatency::cpu.inst 150939.890710                       # average overall mshr miss latency ((Cycle/Count))
system.cpu.icache.demandAvgMshrMissLatency::total 150939.890710                       # average overall mshr miss latency ((Cycle/Count))
system.cpu.icache.overallAvgMshrMissLatency::cpu.inst 150939.890710                       # average overall mshr miss latency ((Cycle/Count))
system.cpu.icache.overallAvgMshrMissLatency::total 150939.890710                       # average overall mshr miss latency ((Cycle/Count))
system.cpu.icache.replacements                    496                       # number of replacements (Count)
system.cpu.icache.ReadReq.hits::cpu.inst     28025802                       # number of ReadReq hits (Count)
system.cpu.icache.ReadReq.hits::total        28025802                       # number of ReadReq hits (Count)
system.cpu.icache.ReadReq.misses::cpu.inst          732                       # number of ReadReq misses (Count)
system.cpu.icache.ReadReq.misses::total           732                       # number of ReadReq misses (Count)
system.cpu.icache.ReadReq.missLatency::cpu.inst    111952000                       # number of ReadReq miss ticks (Tick)
system.cpu.icache.ReadReq.missLatency::total    111952000                       # number of ReadReq miss ticks (Tick)
system.cpu.icache.ReadReq.accesses::cpu.inst     28026534                       # number of ReadReq accesses(hits+misses) (Count)
system.cpu.icache.ReadReq.accesses::total     28026534                       # number of ReadReq accesses(hits+misses) (Count)
system.cpu.icache.ReadReq.missRate::cpu.inst     0.000026                       # miss rate for ReadReq accesses (Ratio)
system.cpu.icache.ReadReq.missRate::total     0.000026                       # miss rate for ReadReq accesses (Ratio)
system.cpu.icache.ReadReq.avgMissLatency::cpu.inst 152939.890710                       # average ReadReq miss latency ((Tick/Count))
system.cpu.icache.ReadReq.avgMissLatency::total 152939.890710                       # average ReadReq miss latency ((Tick/Count))
system.cpu.icache.ReadReq.mshrMisses::cpu.inst          732                       # number of ReadReq MSHR misses (Count)
system.cpu.icache.ReadReq.mshrMisses::total          732                       # number of ReadReq MSHR misses (Count)
system.cpu.icache.ReadReq.mshrMissLatency::cpu.inst    110488000                       # number of ReadReq MSHR miss ticks (Tick)
system.cpu.icache.ReadReq.mshrMissLatency::total    110488000                       # number of ReadReq MSHR miss ticks (Tick)
system.cpu.icache.ReadReq.mshrMissRate::cpu.inst     0.000026                       # mshr miss rate for ReadReq accesses (Ratio)
system.cpu.icache.ReadReq.mshrMissRate::total     0.000026                       # mshr miss rate for ReadReq accesses (Ratio)
system.cpu.icache.ReadReq.avgMshrMissLatency::cpu.inst 150939.890710                       # average ReadReq mshr miss latency ((Tick/Count))
system.cpu.icache.ReadReq.avgMshrMissLatency::total 150939.890710                       # average ReadReq mshr miss latency ((Tick/Count))
system.cpu.icache.power_state.pwrStateResidencyTicks::UNDEFINED  93824931000                       # Cumulative time (in ticks) in various power states (Tick)
system.cpu.icache.tags.tagsInUse           227.289802                       # Average ticks per tags in use ((Tick/Count))
system.cpu.icache.tags.totalRefs             28026534                       # Total number of references to valid blocks. (Count)
system.cpu.icache.tags.sampledRefs                732                       # Sample count of references to valid blocks. (Count)
system.cpu.icache.tags.avgRefs           38287.614754                       # Average number of references to valid blocks. ((Count/Count))
system.cpu.icache.tags.warmupTick              191000                       # The tick when the warmup percentage was hit. (Tick)
system.cpu.icache.tags.occupancies::cpu.inst   227.289802                       # Average occupied blocks per tick, per requestor ((Count/Tick))
system.cpu.icache.tags.avgOccs::cpu.inst     0.887851                       # Average percentage of cache occupancy ((Ratio/Tick))
system.cpu.icache.tags.avgOccs::total        0.887851                       # Average percentage of cache occupancy ((Ratio/Tick))
system.cpu.icache.tags.occupanciesTaskId::1024          236                       # Occupied blocks per task id (Count)
system.cpu.icache.tags.ageTaskId_1024::0           35                       # Occupied blocks per task id, per block age (Count)
system.cpu.icache.tags.ageTaskId_1024::1           45                       # Occupied blocks per task id, per block age (Count)
system.cpu.icache.tags.ageTaskId_1024::4          156                       # Occupied blocks per task id, per block age (Count)
system.cpu.icache.tags.ratioOccsTaskId::1024     0.921875                       # Ratio of occupied blocks and all blocks, per task id (Ratio)
system.cpu.icache.tags.tagAccesses           28027266                       # Number of tag accesses (Count)
system.cpu.icache.tags.dataAccesses          28027266                       # Number of data accesses (Count)
system.cpu.icache.tags.power_state.pwrStateResidencyTicks::UNDEFINED  93824931000                       # Cumulative time (in ticks) in various power states (Tick)
system.cpu.power_state.pwrStateResidencyTicks::ON  93824931000                       # Cumulative time (in ticks) in various power states (Tick)
system.cpu.thread_0.numInsts                        0                       # Number of Instructions committed (Count)
system.cpu.thread_0.numOps                          0                       # Number of Ops committed (Count)
system.cpu.thread_0.numMemRefs                      0                       # Number of Memory References (Count)
system.cpu.workload.numSyscalls                    12                       # Number of system calls (Count)
system.l2bus.transDist::ReadResp               491206                       # Transaction distribution (Count)
system.l2bus.transDist::WritebackDirty         631020                       # Transaction distribution (Count)
system.l2bus.transDist::CleanEvict               1624                       # Transaction distribution (Count)
system.l2bus.transDist::UpgradeReq                  9                       # Transaction distribution (Count)
system.l2bus.transDist::UpgradeResp                 9                       # Transaction distribution (Count)
system.l2bus.transDist::ReadExReq              141013                       # Transaction distribution (Count)
system.l2bus.transDist::ReadExResp             141013                       # Transaction distribution (Count)
system.l2bus.transDist::ReadSharedReq          491206                       # Transaction distribution (Count)
system.l2bus.pktCount_system.cpu.icache.mem_side_port::system.l2cache.cpu_side_port         1960                       # Packet count per connected requestor and responder (Count)
system.l2bus.pktCount_system.cpu.dcache.mem_side_port::system.l2cache.cpu_side_port      1893967                       # Packet count per connected requestor and responder (Count)
system.l2bus.pktCount::total                  1895927                       # Packet count per connected requestor and responder (Count)
system.l2bus.pktSize_system.cpu.icache.mem_side_port::system.l2cache.cpu_side_port        46848                       # Cumulative packet size per connected requestor and responder (Byte)
system.l2bus.pktSize_system.cpu.dcache.mem_side_port::system.l2cache.cpu_side_port     80758720                       # Cumulative packet size per connected requestor and responder (Byte)
system.l2bus.pktSize::total                  80805568                       # Cumulative packet size per connected requestor and responder (Byte)
system.l2bus.snoops                              1173                       # Total snoops (Count)
system.l2bus.snoopTraffic                       41728                       # Total snoop traffic (Byte)
system.l2bus.snoopFanout::samples              633401                       # Request fanout histogram (Count)
system.l2bus.snoopFanout::mean               0.000309                       # Request fanout histogram (Count)
system.l2bus.snoopFanout::stdev              0.017588                       # Request fanout histogram (Count)
system.l2bus.snoopFanout::underflows                0      0.00%      0.00% # Request fanout histogram (Count)
system.l2bus.snoopFanout::0                    633205     99.97%     99.97% # Request fanout histogram (Count)
system.l2bus.snoopFanout::1                       196      0.03%    100.00% # Request fanout histogram (Count)
system.l2bus.snoopFanout::2                         0      0.00%    100.00% # Request fanout histogram (Count)
system.l2bus.snoopFanout::overflows                 0      0.00%    100.00% # Request fanout histogram (Count)
system.l2bus.snoopFanout::min_value                 0                       # Request fanout histogram (Count)
system.l2bus.snoopFanout::max_value                 1                       # Request fanout histogram (Count)
system.l2bus.snoopFanout::total                633401                       # Request fanout histogram (Count)
system.l2bus.power_state.pwrStateResidencyTicks::UNDEFINED  93824931000                       # Cumulative time (in ticks) in various power states (Tick)
system.l2bus.reqLayer0.occupancy           2524435000                       # Layer occupancy (ticks) (Tick)
system.l2bus.reqLayer0.utilization                0.0                       # Layer utilization (Ratio)
system.l2bus.respLayer0.occupancy             2196000                       # Layer occupancy (ticks) (Tick)
system.l2bus.respLayer0.utilization               0.0                       # Layer utilization (Ratio)
system.l2bus.respLayer1.occupancy          1894470000                       # Layer occupancy (ticks) (Tick)
system.l2bus.respLayer1.utilization               0.0                       # Layer utilization (Ratio)
system.l2bus.snoop_filter.totRequests         1263699                       # Total number of requests made to the snoop filter. (Count)
system.l2bus.snoop_filter.hitSingleRequests       631480                       # Number of requests hitting in the snoop filter with a single holder of the requested data. (Count)
system.l2bus.snoop_filter.hitMultiRequests            1                       # Number of requests hitting in the snoop filter with multiple (>1) holders of the requested data. (Count)
system.l2bus.snoop_filter.totSnoops               195                       # Total number of snoops made to the snoop filter. (Count)
system.l2bus.snoop_filter.hitSingleSnoops          195                       # Number of snoops hitting in the snoop filter with a single holder of the requested data. (Count)
system.l2bus.snoop_filter.hitMultiSnoops            0                       # Number of snoops hitting in the snoop filter with multiple (>1) holders of the requested data. (Count)
system.l2cache.demandHits::cpu.inst               156                       # number of demand (read+write) hits (Count)
system.l2cache.demandHits::cpu.data            622698                       # number of demand (read+write) hits (Count)
system.l2cache.demandHits::total               622854                       # number of demand (read+write) hits (Count)
system.l2cache.overallHits::cpu.inst              156                       # number of overall hits (Count)
system.l2cache.overallHits::cpu.data           622698                       # number of overall hits (Count)
system.l2cache.overallHits::total              622854                       # number of overall hits (Count)
system.l2cache.demandMisses::cpu.inst             576                       # number of demand (read+write) misses (Count)
system.l2cache.demandMisses::cpu.data            8789                       # number of demand (read+write) misses (Count)
system.l2cache.demandMisses::total               9365                       # number of demand (read+write) misses (Count)
system.l2cache.overallMisses::cpu.inst            576                       # number of overall misses (Count)
system.l2cache.overallMisses::cpu.data           8789                       # number of overall misses (Count)
system.l2cache.overallMisses::total              9365                       # number of overall misses (Count)
system.l2cache.demandMissLatency::cpu.inst    104999000                       # number of demand (read+write) miss ticks (Tick)
system.l2cache.demandMissLatency::cpu.data   1591800000                       # number of demand (read+write) miss ticks (Tick)
system.l2cache.demandMissLatency::total    1696799000                       # number of demand (read+write) miss ticks (Tick)
system.l2cache.overallMissLatency::cpu.inst    104999000                       # number of overall miss ticks (Tick)
system.l2cache.overallMissLatency::cpu.data   1591800000                       # number of overall miss ticks (Tick)
system.l2cache.overallMissLatency::total   1696799000                       # number of overall miss ticks (Tick)
system.l2cache.demandAccesses::cpu.inst           732                       # number of demand (read+write) accesses (Count)
system.l2cache.demandAccesses::cpu.data        631487                       # number of demand (read+write) accesses (Count)
system.l2cache.demandAccesses::total           632219                       # number of demand (read+write) accesses (Count)
system.l2cache.overallAccesses::cpu.inst          732                       # number of overall (read+write) accesses (Count)
system.l2cache.overallAccesses::cpu.data       631487                       # number of overall (read+write) accesses (Count)
system.l2cache.overallAccesses::total          632219                       # number of overall (read+write) accesses (Count)
system.l2cache.demandMissRate::cpu.inst      0.786885                       # miss rate for demand accesses (Ratio)
system.l2cache.demandMissRate::cpu.data      0.013918                       # miss rate for demand accesses (Ratio)
system.l2cache.demandMissRate::total         0.014813                       # miss rate for demand accesses (Ratio)
system.l2cache.overallMissRate::cpu.inst     0.786885                       # miss rate for overall accesses (Ratio)
system.l2cache.overallMissRate::cpu.data     0.013918                       # miss rate for overall accesses (Ratio)
system.l2cache.overallMissRate::total        0.014813                       # miss rate for overall accesses (Ratio)
system.l2cache.demandAvgMissLatency::cpu.inst 182289.930556                       # average overall miss latency ((Cycle/Count))
system.l2cache.demandAvgMissLatency::cpu.data 181112.754580                       # average overall miss latency ((Cycle/Count))
system.l2cache.demandAvgMissLatency::total 181185.157501                       # average overall miss latency ((Cycle/Count))
system.l2cache.overallAvgMissLatency::cpu.inst 182289.930556                       # average overall miss latency ((Cycle/Count))
system.l2cache.overallAvgMissLatency::cpu.data 181112.754580                       # average overall miss latency ((Cycle/Count))
system.l2cache.overallAvgMissLatency::total 181185.157501                       # average overall miss latency ((Cycle/Count))
system.l2cache.blockedCycles::no_mshrs              0                       # number of cycles access was blocked (Cycle)
system.l2cache.blockedCycles::no_targets            0                       # number of cycles access was blocked (Cycle)
system.l2cache.blockedCauses::no_mshrs              0                       # number of times access was blocked (Count)
system.l2cache.blockedCauses::no_targets            0                       # number of times access was blocked (Count)
system.l2cache.avgBlocked::no_mshrs               nan                       # average number of cycles each access was blocked ((Cycle/Count))
system.l2cache.avgBlocked::no_targets             nan                       # average number of cycles each access was blocked ((Cycle/Count))
system.l2cache.writebacks::writebacks             652                       # number of writebacks (Count)
system.l2cache.writebacks::total                  652                       # number of writebacks (Count)
system.l2cache.demandMshrMisses::cpu.inst          576                       # number of demand (read+write) MSHR misses (Count)
system.l2cache.demandMshrMisses::cpu.data         8789                       # number of demand (read+write) MSHR misses (Count)
system.l2cache.demandMshrMisses::total           9365                       # number of demand (read+write) MSHR misses (Count)
system.l2cache.overallMshrMisses::cpu.inst          576                       # number of overall MSHR misses (Count)
system.l2cache.overallMshrMisses::cpu.data         8789                       # number of overall MSHR misses (Count)
system.l2cache.overallMshrMisses::total          9365                       # number of overall MSHR misses (Count)
system.l2cache.demandMshrMissLatency::cpu.inst     93479000                       # number of demand (read+write) MSHR miss ticks (Tick)
system.l2cache.demandMshrMissLatency::cpu.data   1416020000                       # number of demand (read+write) MSHR miss ticks (Tick)
system.l2cache.demandMshrMissLatency::total   1509499000                       # number of demand (read+write) MSHR miss ticks (Tick)
system.l2cache.overallMshrMissLatency::cpu.inst     93479000                       # number of overall MSHR miss ticks (Tick)
system.l2cache.overallMshrMissLatency::cpu.data   1416020000                       # number of overall MSHR miss ticks (Tick)
system.l2cache.overallMshrMissLatency::total   1509499000                       # number of overall MSHR miss ticks (Tick)
system.l2cache.demandMshrMissRate::cpu.inst     0.786885                       # mshr miss ratio for demand accesses (Ratio)
system.l2cache.demandMshrMissRate::cpu.data     0.013918                       # mshr miss ratio for demand accesses (Ratio)
system.l2cache.demandMshrMissRate::total     0.014813                       # mshr miss ratio for demand accesses (Ratio)
system.l2cache.overallMshrMissRate::cpu.inst     0.786885                       # mshr miss ratio for overall accesses (Ratio)
system.l2cache.overallMshrMissRate::cpu.data     0.013918                       # mshr miss ratio for overall accesses (Ratio)
system.l2cache.overallMshrMissRate::total     0.014813                       # mshr miss ratio for overall accesses (Ratio)
system.l2cache.demandAvgMshrMissLatency::cpu.inst 162289.930556                       # average overall mshr miss latency ((Cycle/Count))
system.l2cache.demandAvgMshrMissLatency::cpu.data 161112.754580                       # average overall mshr miss latency ((Cycle/Count))
system.l2cache.demandAvgMshrMissLatency::total 161185.157501                       # average overall mshr miss latency ((Cycle/Count))
system.l2cache.overallAvgMshrMissLatency::cpu.inst 162289.930556                       # average overall mshr miss latency ((Cycle/Count))
system.l2cache.overallAvgMshrMissLatency::cpu.data 161112.754580                       # average overall mshr miss latency ((Cycle/Count))
system.l2cache.overallAvgMshrMissLatency::total 161185.157501                       # average overall mshr miss latency ((Cycle/Count))
system.l2cache.replacements                      1173                       # number of replacements (Count)
system.l2cache.CleanEvict.mshrMisses::writebacks           62                       # number of CleanEvict MSHR misses (Count)
system.l2cache.CleanEvict.mshrMisses::total           62                       # number of CleanEvict MSHR misses (Count)
system.l2cache.CleanEvict.mshrMissRate::writebacks          inf                       # mshr miss rate for CleanEvict accesses (Ratio)
system.l2cache.CleanEvict.mshrMissRate::total          inf                       # mshr miss rate for CleanEvict accesses (Ratio)
system.l2cache.ReadExReq.hits::cpu.data        132381                       # number of ReadExReq hits (Count)
system.l2cache.ReadExReq.hits::total           132381                       # number of ReadExReq hits (Count)
system.l2cache.ReadExReq.misses::cpu.data         8632                       # number of ReadExReq misses (Count)
system.l2cache.ReadExReq.misses::total           8632                       # number of ReadExReq misses (Count)
system.l2cache.ReadExReq.missLatency::cpu.data   1565430000                       # number of ReadExReq miss ticks (Tick)
system.l2cache.ReadExReq.missLatency::total   1565430000                       # number of ReadExReq miss ticks (Tick)
system.l2cache.ReadExReq.accesses::cpu.data       141013                       # number of ReadExReq accesses(hits+misses) (Count)
system.l2cache.ReadExReq.accesses::total       141013                       # number of ReadExReq accesses(hits+misses) (Count)
system.l2cache.ReadExReq.missRate::cpu.data     0.061214                       # miss rate for ReadExReq accesses (Ratio)
system.l2cache.ReadExReq.missRate::total     0.061214                       # miss rate for ReadExReq accesses (Ratio)
system.l2cache.ReadExReq.avgMissLatency::cpu.data 181351.946247                       # average ReadExReq miss latency ((Tick/Count))
system.l2cache.ReadExReq.avgMissLatency::total 181351.946247                       # average ReadExReq miss latency ((Tick/Count))
system.l2cache.ReadExReq.mshrMisses::cpu.data         8632                       # number of ReadExReq MSHR misses (Count)
system.l2cache.ReadExReq.mshrMisses::total         8632                       # number of ReadExReq MSHR misses (Count)
system.l2cache.ReadExReq.mshrMissLatency::cpu.data   1392790000                       # number of ReadExReq MSHR miss ticks (Tick)
system.l2cache.ReadExReq.mshrMissLatency::total   1392790000                       # number of ReadExReq MSHR miss ticks (Tick)
system.l2cache.ReadExReq.mshrMissRate::cpu.data     0.061214                       # mshr miss rate for ReadExReq accesses (Ratio)
system.l2cache.ReadExReq.mshrMissRate::total     0.061214                       # mshr miss rate for ReadExReq accesses (Ratio)
system.l2cache.ReadExReq.avgMshrMissLatency::cpu.data 161351.946247                       # average ReadExReq mshr miss latency ((Tick/Count))
system.l2cache.ReadExReq.avgMshrMissLatency::total 161351.946247                       # average ReadExReq mshr miss latency ((Tick/Count))
system.l2cache.ReadSharedReq.hits::cpu.inst          156                       # number of ReadSharedReq hits (Count)
system.l2cache.ReadSharedReq.hits::cpu.data       490317                       # number of ReadSharedReq hits (Count)
system.l2cache.ReadSharedReq.hits::total       490473                       # number of ReadSharedReq hits (Count)
system.l2cache.ReadSharedReq.misses::cpu.inst          576                       # number of ReadSharedReq misses (Count)
system.l2cache.ReadSharedReq.misses::cpu.data          157                       # number of ReadSharedReq misses (Count)
system.l2cache.ReadSharedReq.misses::total          733                       # number of ReadSharedReq misses (Count)
system.l2cache.ReadSharedReq.missLatency::cpu.inst    104999000                       # number of ReadSharedReq miss ticks (Tick)
system.l2cache.ReadSharedReq.missLatency::cpu.data     26370000                       # number of ReadSharedReq miss ticks (Tick)
system.l2cache.ReadSharedReq.missLatency::total    131369000                       # number of ReadSharedReq miss ticks (Tick)
system.l2cache.ReadSharedReq.accesses::cpu.inst          732                       # number of ReadSharedReq accesses(hits+misses) (Count)
system.l2cache.ReadSharedReq.accesses::cpu.data       490474                       # number of ReadSharedReq accesses(hits+misses) (Count)
system.l2cache.ReadSharedReq.accesses::total       491206                       # number of ReadSharedReq accesses(hits+misses) (Count)
system.l2cache.ReadSharedReq.missRate::cpu.inst     0.786885                       # miss rate for ReadSharedReq accesses (Ratio)
system.l2cache.ReadSharedReq.missRate::cpu.data     0.000320                       # miss rate for ReadSharedReq accesses (Ratio)
system.l2cache.ReadSharedReq.missRate::total     0.001492                       # miss rate for ReadSharedReq accesses (Ratio)
system.l2cache.ReadSharedReq.avgMissLatency::cpu.inst 182289.930556                       # average ReadSharedReq miss latency ((Tick/Count))
system.l2cache.ReadSharedReq.avgMissLatency::cpu.data 167961.783439                       # average ReadSharedReq miss latency ((Tick/Count))
system.l2cache.ReadSharedReq.avgMissLatency::total 179221.009550                       # average ReadSharedReq miss latency ((Tick/Count))
system.l2cache.ReadSharedReq.mshrMisses::cpu.inst          576                       # number of ReadSharedReq MSHR misses (Count)
system.l2cache.ReadSharedReq.mshrMisses::cpu.data          157                       # number of ReadSharedReq MSHR misses (Count)
system.l2cache.ReadSharedReq.mshrMisses::total          733                       # number of ReadSharedReq MSHR misses (Count)
system.l2cache.ReadSharedReq.mshrMissLatency::cpu.inst     93479000                       # number of ReadSharedReq MSHR miss ticks (Tick)
system.l2cache.ReadSharedReq.mshrMissLatency::cpu.data     23230000                       # number of ReadSharedReq MSHR miss ticks (Tick)
system.l2cache.ReadSharedReq.mshrMissLatency::total    116709000                       # number of ReadSharedReq MSHR miss ticks (Tick)
system.l2cache.ReadSharedReq.mshrMissRate::cpu.inst     0.786885                       # mshr miss rate for ReadSharedReq accesses (Ratio)
system.l2cache.ReadSharedReq.mshrMissRate::cpu.data     0.000320                       # mshr miss rate for ReadSharedReq accesses (Ratio)
system.l2cache.ReadSharedReq.mshrMissRate::total     0.001492                       # mshr miss rate for ReadSharedReq accesses (Ratio)
system.l2cache.ReadSharedReq.avgMshrMissLatency::cpu.inst 162289.930556                       # average ReadSharedReq mshr miss latency ((Tick/Count))
system.l2cache.ReadSharedReq.avgMshrMissLatency::cpu.data 147961.783439                       # average ReadSharedReq mshr miss latency ((Tick/Count))
system.l2cache.ReadSharedReq.avgMshrMissLatency::total 159221.009550                       # average ReadSharedReq mshr miss latency ((Tick/Count))
system.l2cache.UpgradeReq.hits::cpu.data            9                       # number of UpgradeReq hits (Count)
system.l2cache.UpgradeReq.hits::total               9                       # number of UpgradeReq hits (Count)
system.l2cache.UpgradeReq.accesses::cpu.data            9                       # number of UpgradeReq accesses(hits+misses) (Count)
system.l2cache.UpgradeReq.accesses::total            9                       # number of UpgradeReq accesses(hits+misses) (Count)
system.l2cache.WritebackDirty.hits::writebacks       630368                       # number of WritebackDirty hits (Count)
system.l2cache.WritebackDirty.hits::total       630368                       # number of WritebackDirty hits (Count)
system.l2cache.WritebackDirty.accesses::writebacks       630368                       # number of WritebackDirty accesses(hits+misses) (Count)
system.l2cache.WritebackDirty.accesses::total       630368                       # number of WritebackDirty accesses(hits+misses) (Count)
system.l2cache.power_state.pwrStateResidencyTicks::UNDEFINED  93824931000                       # Cumulative time (in ticks) in various power states (Tick)
system.l2cache.tags.tagsInUse             7215.750266                       # Average ticks per tags in use ((Tick/Count))
system.l2cache.tags.totalRefs                 1263636                       # Total number of references to valid blocks. (Count)
system.l2cache.tags.sampledRefs                  9365                       # Sample count of references to valid blocks. (Count)
system.l2cache.tags.avgRefs                134.931767                       # Average number of references to valid blocks. ((Count/Count))
system.l2cache.tags.warmupTick                 170000                       # The tick when the warmup percentage was hit. (Tick)
system.l2cache.tags.occupancies::cpu.inst   281.199867                       # Average occupied blocks per tick, per requestor ((Count/Tick))
system.l2cache.tags.occupancies::cpu.data  6934.550399                       # Average occupied blocks per tick, per requestor ((Count/Tick))
system.l2cache.tags.avgOccs::cpu.inst        0.034326                       # Average percentage of cache occupancy ((Ratio/Tick))
system.l2cache.tags.avgOccs::cpu.data        0.846503                       # Average percentage of cache occupancy ((Ratio/Tick))
system.l2cache.tags.avgOccs::total           0.880829                       # Average percentage of cache occupancy ((Ratio/Tick))
system.l2cache.tags.occupanciesTaskId::1024         8192                       # Occupied blocks per task id (Count)
system.l2cache.tags.ageTaskId_1024::0              48                       # Occupied blocks per task id, per block age (Count)
system.l2cache.tags.ageTaskId_1024::1              75                       # Occupied blocks per task id, per block age (Count)
system.l2cache.tags.ageTaskId_1024::3               2                       # Occupied blocks per task id, per block age (Count)
system.l2cache.tags.ageTaskId_1024::4            8067                       # Occupied blocks per task id, per block age (Count)
system.l2cache.tags.ratioOccsTaskId::1024            1                       # Ratio of occupied blocks and all blocks, per task id (Ratio)
system.l2cache.tags.tagAccesses              10118949                       # Number of tag accesses (Count)
system.l2cache.tags.dataAccesses             10118949                       # Number of data accesses (Count)
system.l2cache.tags.power_state.pwrStateResidencyTicks::UNDEFINED  93824931000                       # Cumulative time (in ticks) in various power states (Tick)
system.l3bus.transDist::ReadResp                  733                       # Transaction distribution (Count)
system.l3bus.transDist::WritebackDirty            652                       # Transaction distribution (Count)
system.l3bus.transDist::CleanEvict                388                       # Transaction distribution (Count)
system.l3bus.transDist::ReadExReq                8632                       # Transaction distribution (Count)
system.l3bus.transDist::ReadExResp               8632                       # Transaction distribution (Count)
system.l3bus.transDist::ReadSharedReq             733                       # Transaction distribution (Count)
system.l3bus.pktCount_system.l2cache.mem_side_port::system.l3cache.cpu_side_port        19770                       # Packet count per connected requestor and responder (Count)
system.l3bus.pktSize_system.l2cache.mem_side_port::system.l3cache.cpu_side_port       641088                       # Cumulative packet size per connected requestor and responder (Byte)
system.l3bus.snoops                                 0                       # Total snoops (Count)
system.l3bus.snoopTraffic                           0                       # Total snoop traffic (Byte)
system.l3bus.snoopFanout::samples                9365                       # Request fanout histogram (Count)
system.l3bus.snoopFanout::mean                      0                       # Request fanout histogram (Count)
system.l3bus.snoopFanout::stdev                     0                       # Request fanout histogram (Count)
system.l3bus.snoopFanout::underflows                0      0.00%      0.00% # Request fanout histogram (Count)
system.l3bus.snoopFanout::0                      9365    100.00%    100.00% # Request fanout histogram (Count)
system.l3bus.snoopFanout::1                         0      0.00%    100.00% # Request fanout histogram (Count)
system.l3bus.snoopFanout::overflows                 0      0.00%    100.00% # Request fanout histogram (Count)
system.l3bus.snoopFanout::min_value                 0                       # Request fanout histogram (Count)
system.l3bus.snoopFanout::max_value                 0                       # Request fanout histogram (Count)
system.l3bus.snoopFanout::total                  9365                       # Request fanout histogram (Count)
system.l3bus.power_state.pwrStateResidencyTicks::UNDEFINED  93824931000                       # Cumulative time (in ticks) in various power states (Tick)
system.l3bus.reqLayer0.occupancy             11709000                       # Layer occupancy (ticks) (Tick)
system.l3bus.reqLayer0.utilization                0.0                       # Layer utilization (Ratio)
system.l3bus.respLayer0.occupancy            28095000                       # Layer occupancy (ticks) (Tick)
system.l3bus.respLayer0.utilization               0.0                       # Layer utilization (Ratio)
system.l3bus.snoop_filter.totRequests           10405                       # Total number of requests made to the snoop filter. (Count)
system.l3bus.snoop_filter.hitSingleRequests         1040                       # Number of requests hitting in the snoop filter with a single holder of the requested data. (Count)
system.l3bus.snoop_filter.hitMultiRequests            0                       # Number of requests hitting in the snoop filter with multiple (>1) holders of the requested data. (Count)
system.l3bus.snoop_filter.totSnoops                 0                       # Total number of snoops made to the snoop filter. (Count)
system.l3bus.snoop_filter.hitSingleSnoops            0                       # Number of snoops hitting in the snoop filter with a single holder of the requested data. (Count)
system.l3bus.snoop_filter.hitMultiSnoops            0                       # Number of snoops hitting in the snoop filter with multiple (>1) holders of the requested data. (Count)
system.l3cache.demandHits::cpu.inst                 6                       # number of demand (read+write) hits (Count)
system.l3cache.demandHits::cpu.data                72                       # number of demand (read+write) hits (Count)
system.l3cache.demandHits::total                   78                       # number of demand (read+write) hits (Count)
system.l3cache.overallHits::cpu.inst                6                       # number of overall hits (Count)
system.l3cache.overallHits::cpu.data               72                       # number of overall hits (Count)
system.l3cache.overallHits::total                  78                       # number of overall hits (Count)
system.l3cache.demandMisses::cpu.inst             570                       # number of demand (read+write) misses (Count)
system.l3cache.demandMisses::cpu.data            8717                       # number of demand (read+write) misses (Count)
system.l3cache.demandMisses::total               9287                       # number of demand (read+write) misses (Count)
system.l3cache.overallMisses::cpu.inst            570                       # number of overall misses (Count)
system.l3cache.overallMisses::cpu.data           8717                       # number of overall misses (Count)
system.l3cache.overallMisses::total              9287                       # number of overall misses (Count)
system.l3cache.demandMissLatency::cpu.inst     80681000                       # number of demand (read+write) miss ticks (Tick)
system.l3cache.demandMissLatency::cpu.data   1221150000                       # number of demand (read+write) miss ticks (Tick)
system.l3cache.demandMissLatency::total    1301831000                       # number of demand (read+write) miss ticks (Tick)
system.l3cache.overallMissLatency::cpu.inst     80681000                       # number of overall miss ticks (Tick)
system.l3cache.overallMissLatency::cpu.data   1221150000                       # number of overall miss ticks (Tick)
system.l3cache.overallMissLatency::total   1301831000                       # number of overall miss ticks (Tick)
system.l3cache.demandAccesses::cpu.inst           576                       # number of demand (read+write) accesses (Count)
system.l3cache.demandAccesses::cpu.data          8789                       # number of demand (read+write) accesses (Count)
system.l3cache.demandAccesses::total             9365                       # number of demand (read+write) accesses (Count)
system.l3cache.overallAccesses::cpu.inst          576                       # number of overall (read+write) accesses (Count)
system.l3cache.overallAccesses::cpu.data         8789                       # number of overall (read+write) accesses (Count)
system.l3cache.overallAccesses::total            9365                       # number of overall (read+write) accesses (Count)
system.l3cache.demandMissRate::cpu.inst      0.989583                       # miss rate for demand accesses (Ratio)
system.l3cache.demandMissRate::cpu.data      0.991808                       # miss rate for demand accesses (Ratio)
system.l3cache.demandMissRate::total         0.991671                       # miss rate for demand accesses (Ratio)
system.l3cache.overallMissRate::cpu.inst     0.989583                       # miss rate for overall accesses (Ratio)
system.l3cache.overallMissRate::cpu.data     0.991808                       # miss rate for overall accesses (Ratio)
system.l3cache.overallMissRate::total        0.991671                       # miss rate for overall accesses (Ratio)
system.l3cache.demandAvgMissLatency::cpu.inst 141545.614035                       # average overall miss latency ((Cycle/Count))
system.l3cache.demandAvgMissLatency::cpu.data 140088.333142                       # average overall miss latency ((Cycle/Count))
system.l3cache.demandAvgMissLatency::total 140177.775385                       # average overall miss latency ((Cycle/Count))
system.l3cache.overallAvgMissLatency::cpu.inst 141545.614035                       # average overall miss latency ((Cycle/Count))
system.l3cache.overallAvgMissLatency::cpu.data 140088.333142                       # average overall miss latency ((Cycle/Count))
system.l3cache.overallAvgMissLatency::total 140177.775385                       # average overall miss latency ((Cycle/Count))
system.l3cache.blockedCycles::no_mshrs              0                       # number of cycles access was blocked (Cycle)
system.l3cache.blockedCycles::no_targets            0                       # number of cycles access was blocked (Cycle)
system.l3cache.blockedCauses::no_mshrs              0                       # number of times access was blocked (Count)
system.l3cache.blockedCauses::no_targets            0                       # number of times access was blocked (Count)
system.l3cache.avgBlocked::no_mshrs               nan                       # average number of cycles each access was blocked ((Cycle/Count))
system.l3cache.avgBlocked::no_targets             nan                       # average number of cycles each access was blocked ((Cycle/Count))
system.l3cache.demandMshrMisses::cpu.inst          570                       # number of demand (read+write) MSHR misses (Count)
system.l3cache.demandMshrMisses::cpu.data         8717                       # number of demand (read+write) MSHR misses (Count)
system.l3cache.demandMshrMisses::total           9287                       # number of demand (read+write) MSHR misses (Count)
system.l3cache.overallMshrMisses::cpu.inst          570                       # number of overall MSHR misses (Count)
system.l3cache.overallMshrMisses::cpu.data         8717                       # number of overall MSHR misses (Count)
system.l3cache.overallMshrMisses::total          9287                       # number of overall MSHR misses (Count)
system.l3cache.demandMshrMissLatency::cpu.inst     69281000                       # number of demand (read+write) MSHR miss ticks (Tick)
system.l3cache.demandMshrMissLatency::cpu.data   1046810000                       # number of demand (read+write) MSHR miss ticks (Tick)
system.l3cache.demandMshrMissLatency::total   1116091000                       # number of demand (read+write) MSHR miss ticks (Tick)
system.l3cache.overallMshrMissLatency::cpu.inst     69281000                       # number of overall MSHR miss ticks (Tick)
system.l3cache.overallMshrMissLatency::cpu.data   1046810000                       # number of overall MSHR miss ticks (Tick)
system.l3cache.overallMshrMissLatency::total   1116091000                       # number of overall MSHR miss ticks (Tick)
system.l3cache.demandMshrMissRate::cpu.inst     0.989583                       # mshr miss ratio for demand accesses (Ratio)
system.l3cache.demandMshrMissRate::cpu.data     0.991808                       # mshr miss ratio for demand accesses (Ratio)
system.l3cache.demandMshrMissRate::total     0.991671                       # mshr miss ratio for demand accesses (Ratio)
system.l3cache.overallMshrMissRate::cpu.inst     0.989583                       # mshr miss ratio for overall accesses (Ratio)
system.l3cache.overallMshrMissRate::cpu.data     0.991808                       # mshr miss ratio for overall accesses (Ratio)
system.l3cache.overallMshrMissRate::total     0.991671                       # mshr miss ratio for overall accesses (Ratio)
system.l3cache.demandAvgMshrMissLatency::cpu.inst 121545.614035                       # average overall mshr miss latency ((Cycle/Count))
system.l3cache.demandAvgMshrMissLatency::cpu.data 120088.333142                       # average overall mshr miss latency ((Cycle/Count))
system.l3cache.demandAvgMshrMissLatency::total 120177.775385                       # average overall mshr miss latency ((Cycle/Count))
system.l3cache.overallAvgMshrMissLatency::cpu.inst 121545.614035                       # average overall mshr miss latency ((Cycle/Count))
system.l3cache.overallAvgMshrMissLatency::cpu.data 120088.333142                       # average overall mshr miss latency ((Cycle/Count))
system.l3cache.overallAvgMshrMissLatency::total 120177.775385                       # average overall mshr miss latency ((Cycle/Count))
system.l3cache.replacements                         0                       # number of replacements (Count)
system.l3cache.ReadExReq.hits::cpu.data            49                       # number of ReadExReq hits (Count)
system.l3cache.ReadExReq.hits::total               49                       # number of ReadExReq hits (Count)
system.l3cache.ReadExReq.misses::cpu.data         8583                       # number of ReadExReq misses (Count)
system.l3cache.ReadExReq.misses::total           8583                       # number of ReadExReq misses (Count)
system.l3cache.ReadExReq.missLatency::cpu.data   1201857000                       # number of ReadExReq miss ticks (Tick)
system.l3cache.ReadExReq.missLatency::total   1201857000                       # number of ReadExReq miss ticks (Tick)
system.l3cache.ReadExReq.accesses::cpu.data         8632                       # number of ReadExReq accesses(hits+misses) (Count)
system.l3cache.ReadExReq.accesses::total         8632                       # number of ReadExReq accesses(hits+misses) (Count)
system.l3cache.ReadExReq.missRate::cpu.data     0.994323                       # miss rate for ReadExReq accesses (Ratio)
system.l3cache.ReadExReq.missRate::total     0.994323                       # miss rate for ReadExReq accesses (Ratio)
system.l3cache.ReadExReq.avgMissLatency::cpu.data 140027.612723                       # average ReadExReq miss latency ((Tick/Count))
system.l3cache.ReadExReq.avgMissLatency::total 140027.612723                       # average ReadExReq miss latency ((Tick/Count))
system.l3cache.ReadExReq.mshrMisses::cpu.data         8583                       # number of ReadExReq MSHR misses (Count)
system.l3cache.ReadExReq.mshrMisses::total         8583                       # number of ReadExReq MSHR misses (Count)
system.l3cache.ReadExReq.mshrMissLatency::cpu.data   1030197000                       # number of ReadExReq MSHR miss ticks (Tick)
system.l3cache.ReadExReq.mshrMissLatency::total   1030197000                       # number of ReadExReq MSHR miss ticks (Tick)
system.l3cache.ReadExReq.mshrMissRate::cpu.data     0.994323                       # mshr miss rate for ReadExReq accesses (Ratio)
system.l3cache.ReadExReq.mshrMissRate::total     0.994323                       # mshr miss rate for ReadExReq accesses (Ratio)
system.l3cache.ReadExReq.avgMshrMissLatency::cpu.data 120027.612723                       # average ReadExReq mshr miss latency ((Tick/Count))
system.l3cache.ReadExReq.avgMshrMissLatency::total 120027.612723                       # average ReadExReq mshr miss latency ((Tick/Count))
system.l3cache.ReadSharedReq.hits::cpu.inst            6                       # number of ReadSharedReq hits (Count)
system.l3cache.ReadSharedReq.hits::cpu.data           23                       # number of ReadSharedReq hits (Count)
system.l3cache.ReadSharedReq.hits::total           29                       # number of ReadSharedReq hits (Count)
system.l3cache.ReadSharedReq.misses::cpu.inst          570                       # number of ReadSharedReq misses (Count)
system.l3cache.ReadSharedReq.misses::cpu.data          134                       # number of ReadSharedReq misses (Count)
system.l3cache.ReadSharedReq.misses::total          704                       # number of ReadSharedReq misses (Count)
system.l3cache.ReadSharedReq.missLatency::cpu.inst     80681000                       # number of ReadSharedReq miss ticks (Tick)
system.l3cache.ReadSharedReq.missLatency::cpu.data     19293000                       # number of ReadSharedReq miss ticks (Tick)
system.l3cache.ReadSharedReq.missLatency::total     99974000                       # number of ReadSharedReq miss ticks (Tick)
system.l3cache.ReadSharedReq.accesses::cpu.inst          576                       # number of ReadSharedReq accesses(hits+misses) (Count)
system.l3cache.ReadSharedReq.accesses::cpu.data          157                       # number of ReadSharedReq accesses(hits+misses) (Count)
system.l3cache.ReadSharedReq.accesses::total          733                       # number of ReadSharedReq accesses(hits+misses) (Count)
system.l3cache.ReadSharedReq.missRate::cpu.inst     0.989583                       # miss rate for ReadSharedReq accesses (Ratio)
system.l3cache.ReadSharedReq.missRate::cpu.data     0.853503                       # miss rate for ReadSharedReq accesses (Ratio)
system.l3cache.ReadSharedReq.missRate::total     0.960437                       # miss rate for ReadSharedReq accesses (Ratio)
system.l3cache.ReadSharedReq.avgMissLatency::cpu.inst 141545.614035                       # average ReadSharedReq miss latency ((Tick/Count))
system.l3cache.ReadSharedReq.avgMissLatency::cpu.data 143977.611940                       # average ReadSharedReq miss latency ((Tick/Count))
system.l3cache.ReadSharedReq.avgMissLatency::total 142008.522727                       # average ReadSharedReq miss latency ((Tick/Count))
system.l3cache.ReadSharedReq.mshrMisses::cpu.inst          570                       # number of ReadSharedReq MSHR misses (Count)
system.l3cache.ReadSharedReq.mshrMisses::cpu.data          134                       # number of ReadSharedReq MSHR misses (Count)
system.l3cache.ReadSharedReq.mshrMisses::total          704                       # number of ReadSharedReq MSHR misses (Count)
system.l3cache.ReadSharedReq.mshrMissLatency::cpu.inst     69281000                       # number of ReadSharedReq MSHR miss ticks (Tick)
[...]
system.mem_ctrl.requestorReadAccesses::cpu.data         8717                       # Per-requestor read serviced memory accesses (Count)
system.mem_ctrl.requestorReadTotalLat::cpu.inst     16082750                       # Per-requestor read total memory access latency (Tick)
system.mem_ctrl.requestorReadTotalLat::cpu.data    233419250                       # Per-requestor read total memory access latency (Tick)
system.mem_ctrl.requestorReadAvgLat::cpu.inst     28215.35                       # Per-requestor read average memory access latency ((Tick/Count))
system.mem_ctrl.requestorReadAvgLat::cpu.data     26777.48                       # Per-requestor read average memory access latency ((Tick/Count))
system.mem_ctrl.dram.bytesRead::cpu.inst        36480                       # Number of bytes read from this memory (Byte)
system.mem_ctrl.dram.bytesRead::cpu.data       557888                       # Number of bytes read from this memory (Byte)
system.mem_ctrl.dram.bytesRead::total          594368                       # Number of bytes read from this memory (Byte)
system.mem_ctrl.dram.bytesInstRead::cpu.inst        36480                       # Number of instructions bytes read from this memory (Byte)
system.mem_ctrl.dram.bytesInstRead::total        36480                       # Number of instructions bytes read from this memory (Byte)
system.mem_ctrl.dram.numReads::cpu.inst           570                       # Number of read requests responded to by this memory (Count)
system.mem_ctrl.dram.numReads::cpu.data          8717                       # Number of read requests responded to by this memory (Count)
system.mem_ctrl.dram.numReads::total             9287                       # Number of read requests responded to by this memory (Count)
system.mem_ctrl.dram.bwRead::cpu.inst          388809                       # Total read bandwidth from this memory ((Byte/Second))
system.mem_ctrl.dram.bwRead::cpu.data         5946053                       # Total read bandwidth from this memory ((Byte/Second))
system.mem_ctrl.dram.bwRead::total            6334862                       # Total read bandwidth from this memory ((Byte/Second))
system.mem_ctrl.dram.bwInstRead::cpu.inst       388809                       # Instruction read bandwidth from this memory ((Byte/Second))
system.mem_ctrl.dram.bwInstRead::total         388809                       # Instruction read bandwidth from this memory ((Byte/Second))
system.mem_ctrl.dram.bwTotal::cpu.inst         388809                       # Total bandwidth to/from this memory ((Byte/Second))
system.mem_ctrl.dram.bwTotal::cpu.data        5946053                       # Total bandwidth to/from this memory ((Byte/Second))
system.mem_ctrl.dram.bwTotal::total           6334862                       # Total bandwidth to/from this memory ((Byte/Second))
system.mem_ctrl.dram.readBursts                  9287                       # Number of DRAM read bursts (Count)
system.mem_ctrl.dram.writeBursts                    0                       # Number of DRAM write bursts (Count)
system.mem_ctrl.dram.perBankRdBursts::0           650                       # Per bank write bursts (Count)
system.mem_ctrl.dram.perBankRdBursts::1           587                       # Per bank write bursts (Count)
system.mem_ctrl.dram.perBankRdBursts::2           565                       # Per bank write bursts (Count)
system.mem_ctrl.dram.perBankRdBursts::3           652                       # Per bank write bursts (Count)
system.mem_ctrl.dram.perBankRdBursts::4           625                       # Per bank write bursts (Count)
system.mem_ctrl.dram.perBankRdBursts::5           640                       # Per bank write bursts (Count)
system.mem_ctrl.dram.perBankRdBursts::6           681                       # Per bank write bursts (Count)
system.mem_ctrl.dram.perBankRdBursts::7           584                       # Per bank write bursts (Count)
system.mem_ctrl.dram.perBankRdBursts::8           530                       # Per bank write bursts (Count)
system.mem_ctrl.dram.perBankRdBursts::9           558                       # Per bank write bursts (Count)
system.mem_ctrl.dram.perBankRdBursts::10          530                       # Per bank write bursts (Count)
system.mem_ctrl.dram.perBankRdBursts::11          550                       # Per bank write bursts (Count)
system.mem_ctrl.dram.perBankRdBursts::12          565                       # Per bank write bursts (Count)
system.mem_ctrl.dram.perBankRdBursts::13          485                       # Per bank write bursts (Count)
system.mem_ctrl.dram.perBankRdBursts::14          529                       # Per bank write bursts (Count)
system.mem_ctrl.dram.perBankRdBursts::15          556                       # Per bank write bursts (Count)
system.mem_ctrl.dram.perBankWrBursts::0             0                       # Per bank write bursts (Count)
system.mem_ctrl.dram.perBankWrBursts::1             0                       # Per bank write bursts (Count)
system.mem_ctrl.dram.perBankWrBursts::2             0                       # Per bank write bursts (Count)
system.mem_ctrl.dram.perBankWrBursts::3             0                       # Per bank write bursts (Count)
system.mem_ctrl.dram.perBankWrBursts::4             0                       # Per bank write bursts (Count)
system.mem_ctrl.dram.perBankWrBursts::5             0                       # Per bank write bursts (Count)
system.mem_ctrl.dram.perBankWrBursts::6             0                       # Per bank write bursts (Count)
system.mem_ctrl.dram.perBankWrBursts::7             0                       # Per bank write bursts (Count)
system.mem_ctrl.dram.perBankWrBursts::8             0                       # Per bank write bursts (Count)
system.mem_ctrl.dram.perBankWrBursts::9             0                       # Per bank write bursts (Count)
system.mem_ctrl.dram.perBankWrBursts::10            0                       # Per bank write bursts (Count)
system.mem_ctrl.dram.perBankWrBursts::11            0                       # Per bank write bursts (Count)
system.mem_ctrl.dram.perBankWrBursts::12            0                       # Per bank write bursts (Count)
system.mem_ctrl.dram.perBankWrBursts::13            0                       # Per bank write bursts (Count)
system.mem_ctrl.dram.perBankWrBursts::14            0                       # Per bank write bursts (Count)
system.mem_ctrl.dram.perBankWrBursts::15            0                       # Per bank write bursts (Count)
system.mem_ctrl.dram.totQLat                 75370750                       # Total ticks spent queuing (Tick)
system.mem_ctrl.dram.totBusLat               46435000                       # Total ticks spent in databus transfers (Tick)
system.mem_ctrl.dram.totMemAccLat           249502000                       # Total ticks spent from burst creation until serviced by the DRAM (Tick)
system.mem_ctrl.dram.avgQLat                  8115.73                       # Average queueing delay per DRAM burst ((Tick/Count))
system.mem_ctrl.dram.avgBusLat                5000.00                       # Average bus latency per DRAM burst ((Tick/Count))
system.mem_ctrl.dram.avgMemAccLat            26865.73                       # Average memory access latency per DRAM burst ((Tick/Count))
system.mem_ctrl.dram.readRowHits                 6923                       # Number of row buffer hits during reads (Count)
system.mem_ctrl.dram.writeRowHits                   0                       # Number of row buffer hits during writes (Count)
system.mem_ctrl.dram.readRowHitRate             74.55                       # Row buffer hit rate for reads (Ratio)
system.mem_ctrl.dram.writeRowHitRate              nan                       # Row buffer hit rate for writes (Ratio)
system.mem_ctrl.dram.bytesPerActivate::samples         2362                       # Bytes accessed per row activation (Byte)
system.mem_ctrl.dram.bytesPerActivate::mean   251.583404                       # Bytes accessed per row activation (Byte)
system.mem_ctrl.dram.bytesPerActivate::gmean   230.051552                       # Bytes accessed per row activation (Byte)
system.mem_ctrl.dram.bytesPerActivate::stdev   107.923150                       # Bytes accessed per row activation (Byte)
system.mem_ctrl.dram.bytesPerActivate::0-127          143      6.05%      6.05% # Bytes accessed per row activation (Byte)
system.mem_ctrl.dram.bytesPerActivate::128-255          814     34.46%     40.52% # Bytes accessed per row activation (Byte)
system.mem_ctrl.dram.bytesPerActivate::256-383         1034     43.78%     84.29% # Bytes accessed per row activation (Byte)
system.mem_ctrl.dram.bytesPerActivate::384-511          337     14.27%     98.56% # Bytes accessed per row activation (Byte)
system.mem_ctrl.dram.bytesPerActivate::512-639            8      0.34%     98.90% # Bytes accessed per row activation (Byte)
system.mem_ctrl.dram.bytesPerActivate::640-767            7      0.30%     99.20% # Bytes accessed per row activation (Byte)
system.mem_ctrl.dram.bytesPerActivate::768-895            5      0.21%     99.41% # Bytes accessed per row activation (Byte)
system.mem_ctrl.dram.bytesPerActivate::896-1023            4      0.17%     99.58% # Bytes accessed per row activation (Byte)
system.mem_ctrl.dram.bytesPerActivate::1024-1151           10      0.42%    100.00% # Bytes accessed per row activation (Byte)
system.mem_ctrl.dram.bytesPerActivate::total         2362                       # Bytes accessed per row activation (Byte)
system.mem_ctrl.dram.bytesRead                 594368                       # Total bytes read (Byte)
system.mem_ctrl.dram.bytesWritten                   0                       # Total bytes written (Byte)
system.mem_ctrl.dram.avgRdBW                 6.334862                       # Average DRAM read bandwidth in MiBytes/s ((Byte/Second))
system.mem_ctrl.dram.avgWrBW                        0                       # Average DRAM write bandwidth in MiBytes/s ((Byte/Second))
system.mem_ctrl.dram.peakBW                  12800.00                       # Theoretical peak bandwidth in MiByte/s ((Byte/Second))
system.mem_ctrl.dram.busUtil                     0.05                       # Data bus utilization in percentage (Ratio)
system.mem_ctrl.dram.busUtilRead                 0.05                       # Data bus utilization in percentage for reads (Ratio)
system.mem_ctrl.dram.busUtilWrite                0.00                       # Data bus utilization in percentage for writes (Ratio)
system.mem_ctrl.dram.pageHitRate                74.55                       # Row buffer hit rate, read and write combined (Ratio)
system.mem_ctrl.dram.power_state.pwrStateResidencyTicks::UNDEFINED  93824931000                       # Cumulative time (in ticks) in various power states (Tick)
system.mem_ctrl.dram.rank0.actEnergy          9324840                       # Energy for activate commands per rank (pJ) (Joule)
system.mem_ctrl.dram.rank0.preEnergy          4952475                       # Energy for precharge commands per rank (pJ) (Joule)
system.mem_ctrl.dram.rank0.readEnergy        35585760                       # Energy for read commands per rank (pJ) (Joule)
system.mem_ctrl.dram.rank0.writeEnergy              0                       # Energy for write commands per rank (pJ) (Joule)
system.mem_ctrl.dram.rank0.refreshEnergy 7406412000.000001                       # Energy for refresh commands per rank (pJ) (Joule)
system.mem_ctrl.dram.rank0.actBackEnergy   4824220650                       # Energy for active background per rank (pJ) (Joule)
system.mem_ctrl.dram.rank0.preBackEnergy  31966272000                       # Energy for precharge background per rank (pJ) (Joule)
system.mem_ctrl.dram.rank0.actPowerDownEnergy            0                       # Energy for active power-down per rank (pJ) (Joule)
system.mem_ctrl.dram.rank0.prePowerDownEnergy            0                       # Energy for precharge power-down per rank (pJ) (Joule)
system.mem_ctrl.dram.rank0.selfRefreshEnergy            0                       # Energy for self refresh per rank (pJ) (Joule)
system.mem_ctrl.dram.rank0.totalEnergy    44246767725                       # Total energy per rank (pJ) (Joule)
system.mem_ctrl.dram.rank0.averagePower    471.588599                       # Core power per rank (mW) (Watt)
system.mem_ctrl.dram.rank0.totalIdleTime            0                       # Total Idle time Per DRAM Rank (Tick)
system.mem_ctrl.dram.rank0.pwrStateTime::IDLE  83063396250                       # Time in different power states (Tick)
system.mem_ctrl.dram.rank0.pwrStateTime::REF   3133000000                       # Time in different power states (Tick)
system.mem_ctrl.dram.rank0.pwrStateTime::SREF            0                       # Time in different power states (Tick)
system.mem_ctrl.dram.rank0.pwrStateTime::PRE_PDN            0                       # Time in different power states (Tick)
system.mem_ctrl.dram.rank0.pwrStateTime::ACT   7628534750                       # Time in different power states (Tick)
system.mem_ctrl.dram.rank0.pwrStateTime::ACT_PDN            0                       # Time in different power states (Tick)
system.mem_ctrl.dram.rank1.actEnergy          7554120                       # Energy for activate commands per rank (pJ) (Joule)
system.mem_ctrl.dram.rank1.preEnergy          4011315                       # Energy for precharge commands per rank (pJ) (Joule)
system.mem_ctrl.dram.rank1.readEnergy        30723420                       # Energy for read commands per rank (pJ) (Joule)
system.mem_ctrl.dram.rank1.writeEnergy              0                       # Energy for write commands per rank (pJ) (Joule)
system.mem_ctrl.dram.rank1.refreshEnergy 7406412000.000001                       # Energy for refresh commands per rank (pJ) (Joule)
system.mem_ctrl.dram.rank1.actBackEnergy   4245908910                       # Energy for active background per rank (pJ) (Joule)
system.mem_ctrl.dram.rank1.preBackEnergy  32453271360                       # Energy for precharge background per rank (pJ) (Joule)
system.mem_ctrl.dram.rank1.actPowerDownEnergy            0                       # Energy for active power-down per rank (pJ) (Joule)
system.mem_ctrl.dram.rank1.prePowerDownEnergy            0                       # Energy for precharge power-down per rank (pJ) (Joule)
system.mem_ctrl.dram.rank1.selfRefreshEnergy            0                       # Energy for self refresh per rank (pJ) (Joule)
system.mem_ctrl.dram.rank1.totalEnergy    44147881125                       # Total energy per rank (pJ) (Joule)
system.mem_ctrl.dram.rank1.averagePower    470.534651                       # Core power per rank (mW) (Watt)
system.mem_ctrl.dram.rank1.totalIdleTime            0                       # Total Idle time Per DRAM Rank (Tick)
system.mem_ctrl.dram.rank1.pwrStateTime::IDLE  84334531750                       # Time in different power states (Tick)
system.mem_ctrl.dram.rank1.pwrStateTime::REF   3133000000                       # Time in different power states (Tick)
system.mem_ctrl.dram.rank1.pwrStateTime::SREF            0                       # Time in different power states (Tick)
system.mem_ctrl.dram.rank1.pwrStateTime::PRE_PDN            0                       # Time in different power states (Tick)
system.mem_ctrl.dram.rank1.pwrStateTime::ACT   6357399250                       # Time in different power states (Tick)
system.mem_ctrl.dram.rank1.pwrStateTime::ACT_PDN            0                       # Time in different power states (Tick)
system.mem_ctrl.power_state.pwrStateResidencyTicks::UNDEFINED  93824931000                       # Cumulative time (in ticks) in various power states (Tick)
system.membus.transDist::ReadResp                 704                       # Transaction distribution (Count)
system.membus.transDist::ReadExReq               8583                       # Transaction distribution (Count)
system.membus.transDist::ReadExResp              8583                       # Transaction distribution (Count)
system.membus.transDist::ReadSharedReq            704                       # Transaction distribution (Count)
system.membus.pktCount_system.l4cache.mem_side_port::system.mem_ctrl.port        18574                       # Packet count per connected requestor and responder (Count)
system.membus.pktCount::total                   18574                       # Packet count per connected requestor and responder (Count)
system.membus.pktSize_system.l4cache.mem_side_port::system.mem_ctrl.port       594368                       # Cumulative packet size per connected requestor and responder (Byte)
system.membus.pktSize::total                   594368                       # Cumulative packet size per connected requestor and responder (Byte)
system.membus.snoops                                0                       # Total snoops (Count)
system.membus.snoopTraffic                          0                       # Total snoop traffic (Byte)
system.membus.snoopFanout::samples               9287                       # Request fanout histogram (Count)
system.membus.snoopFanout::mean                     0                       # Request fanout histogram (Count)
system.membus.snoopFanout::stdev                    0                       # Request fanout histogram (Count)
system.membus.snoopFanout::underflows               0      0.00%      0.00% # Request fanout histogram (Count)
system.membus.snoopFanout::0                     9287    100.00%    100.00% # Request fanout histogram (Count)
system.membus.snoopFanout::1                        0      0.00%    100.00% # Request fanout histogram (Count)
system.membus.snoopFanout::overflows                0      0.00%    100.00% # Request fanout histogram (Count)
system.membus.snoopFanout::min_value                0                       # Request fanout histogram (Count)
system.membus.snoopFanout::max_value                0                       # Request fanout histogram (Count)
system.membus.snoopFanout::total                 9287                       # Request fanout histogram (Count)
system.membus.power_state.pwrStateResidencyTicks::UNDEFINED  93824931000                       # Cumulative time (in ticks) in various power states (Tick)
system.membus.reqLayer0.occupancy             9287000                       # Layer occupancy (ticks) (Tick)
system.membus.reqLayer0.utilization               0.0                       # Layer utilization (Ratio)
system.membus.respLayer0.occupancy           49332500                       # Layer occupancy (ticks) (Tick)
system.membus.respLayer0.utilization              0.0                       # Layer utilization (Ratio)
system.membus.snoop_filter.totRequests           9287                       # Total number of requests made to the snoop filter. (Count)
system.membus.snoop_filter.hitSingleRequests            0                       # Number of requests hitting in the snoop filter with a single holder of the requested data. (Count)
system.membus.snoop_filter.hitMultiRequests            0                       # Number of requests hitting in the snoop filter with multiple (>1) holders of the requested data. (Count)
system.membus.snoop_filter.totSnoops                0                       # Total number of snoops made to the snoop filter. (Count)
system.membus.snoop_filter.hitSingleSnoops            0                       # Number of snoops hitting in the snoop filter with a single holder of the requested data. (Count)
system.membus.snoop_filter.hitMultiSnoops            0                       # Number of snoops hitting in the snoop filter with multiple (>1) holders of the requested data. (Count)
system.workload.inst.arm                            0                       # number of arm instructions executed (Count)
system.workload.inst.quiesce                        0                       # number of quiesce instructions executed (Count)

---------- End Simulation Statistics   ----------
